#======================================================================

# CRYSTAL DATA

#----------------------------------------------------------------------

data_VESTA_phase_1


_chemical_name_common                  '4_6_4_5_8_4_8_pos                     '
_cell_length_a                         2.14284
_cell_length_b                         5.03140
_cell_length_c                         39.11327
_cell_angle_alpha                      89.36328
_cell_angle_beta                       88.50362
_cell_angle_gamma                      64.79511
_space_group_name_H-M_alt              'P 1'
_space_group_IT_number                 1

loop_
_space_group_symop_operation_xyz
   'x, y, z'

loop_
   _atom_site_label
   _atom_site_occupancy
   _atom_site_fract_x
   _atom_site_fract_y
   _atom_site_fract_z
   _atom_site_adp_type
   _atom_site_B_iso_or_equiv
   _atom_site_type_symbol
   N1         1.0     0.243099      0.007745      0.989455     Biso  1.000000 N
   N2         1.0     0.100826      0.161751      0.961595     Biso  1.000000 N
   N3         1.0     0.282118     -0.006220      0.935922     Biso  1.000000 N
   N4         1.0     0.147865      0.140295      0.907862     Biso  1.000000 N
   N5         1.0     0.736975      0.060357      0.887711     Biso  1.000000 N
   N6         1.0     0.607773      0.203992      0.859315     Biso  1.000000 N
   N7         1.0     0.793123      0.031640      0.834379     Biso  1.000000 N
   N8         1.0     0.674133      0.167707      0.806916     Biso  1.000000 N
   N9         1.0     0.860575     -0.005781      0.782045     Biso  1.000000 N
   N10        1.0     0.735291      0.134036      0.753487     Biso  1.000000 N
   N11        1.0     0.327820      0.050623      0.733446     Biso  1.000000 N
   N12        1.0     0.203345      0.187319      0.704892     Biso  1.000000 N
   N13        1.0     0.390428      0.013136      0.679623     Biso  1.000000 N
   N14        1.0     0.263285      0.153204      0.651388     Biso  1.000000 N
   N15        1.0     0.855390      0.071583      0.630941     Biso  1.000000 N
   N16        1.0     0.716246      0.225543      0.603261     Biso  1.000000 N
   N17        1.0     0.890320      0.064412      0.577317     Biso  1.000000 N
   N18        1.0     0.746010      0.223237      0.551189     Biso  1.000000 N
   N19        1.0     0.917332      0.064484      0.523776     Biso  1.000000 N
   N20        1.0     0.348249      0.142231      0.503385     Biso  1.000000 N
   N21        1.0     0.512249     -0.009179      0.475595     Biso  1.000000 N
   N22        1.0     0.357708      0.158682      0.450200     Biso  1.000000 N
   N23        1.0     0.517219      0.014704      0.423072     Biso  1.000000 N
   N24        1.0     0.360468      0.184089      0.397898     Biso  1.000000 N
   N25        1.0     0.518608      0.041329      0.370673     Biso  1.000000 N
   N26        1.0     0.360480      0.211548      0.345529     Biso  1.000000 N
   N27        1.0     0.518175      0.067232      0.317376     Biso  1.000000 N
   N28        1.0     0.944486      0.150953      0.297174     Biso  1.000000 N
   N29        1.0     0.097760      0.012368      0.268894     Biso  1.000000 N
   N30        1.0     0.933867      0.187058      0.243709     Biso  1.000000 N
   N31        1.0     0.086439      0.048990      0.215414     Biso  1.000000 N
   N32        1.0     0.512249      0.133090      0.195176     Biso  1.000000 N
   N33        1.0     0.670205     -0.011460      0.167079     Biso  1.000000 N
   N34        1.0     0.513486      0.157688      0.141786     Biso  1.000000 N
   N35        1.0     0.675010      0.011043      0.114838     Biso  1.000000 N
   N36        1.0     0.524887      0.174593      0.089199     Biso  1.000000 N
   N37        1.0     0.692740      0.021138      0.062605     Biso  1.000000 N
   N38        1.0     0.548468      0.178697      0.036575     Biso  1.000000 N
   N39        1.0     0.727795      0.013642      0.009300     Biso  1.000000 N
   N40        1.0     0.243099      0.507745      0.989455     Biso  1.000000 N
   N41        1.0     0.100826      0.661751      0.961595     Biso  1.000000 N
   N42        1.0     0.282118      0.493780      0.935922     Biso  1.000000 N
   N43        1.0     0.147864      0.640295      0.907862     Biso  1.000000 N
   N44        1.0     0.736975      0.560357      0.887711     Biso  1.000000 N
   N45        1.0     0.607773      0.703992      0.859315     Biso  1.000000 N
   N46        1.0     0.793123      0.531640      0.834379     Biso  1.000000 N
   N47        1.0     0.674133      0.667707      0.806916     Biso  1.000000 N
   N48        1.0     0.860575      0.494219      0.782045     Biso  1.000000 N
   N49        1.0     0.735291      0.634036      0.753487     Biso  1.000000 N
   N50        1.0     0.327820      0.550623      0.733446     Biso  1.000000 N
   N51        1.0     0.203345      0.687319      0.704892     Biso  1.000000 N
   N52        1.0     0.390428      0.513136      0.679623     Biso  1.000000 N
   N53        1.0     0.263285      0.653204      0.651388     Biso  1.000000 N
   N54        1.0     0.855390      0.571583      0.630941     Biso  1.000000 N
   N55        1.0     0.716246      0.725543      0.603261     Biso  1.000000 N
   N56        1.0     0.890320      0.564412      0.577317     Biso  1.000000 N
   N57        1.0     0.746010      0.723237      0.551189     Biso  1.000000 N
   N58        1.0     0.917332      0.564484      0.523776     Biso  1.000000 N
   N59        1.0     0.348249      0.642232      0.503385     Biso  1.000000 N
   N60        1.0     0.512249      0.490821      0.475595     Biso  1.000000 N
   N61        1.0     0.357708      0.658682      0.450200     Biso  1.000000 N
   N62        1.0     0.517219      0.514704      0.423072     Biso  1.000000 N
   N63        1.0     0.360468      0.684089      0.397898     Biso  1.000000 N
   N64        1.0     0.518608      0.541329      0.370673     Biso  1.000000 N
   N65        1.0     0.360480      0.711549      0.345529     Biso  1.000000 N
   N66        1.0     0.518175      0.567232      0.317376     Biso  1.000000 N
   N67        1.0     0.944486      0.650953      0.297174     Biso  1.000000 N
   N68        1.0     0.097760      0.512368      0.268894     Biso  1.000000 N
   N69        1.0     0.933867      0.687058      0.243709     Biso  1.000000 N
   N70        1.0     0.086439      0.548990      0.215414     Biso  1.000000 N
   N71        1.0     0.512249      0.633090      0.195176     Biso  1.000000 N
   N72        1.0     0.670205      0.488540      0.167079     Biso  1.000000 N
   N73        1.0     0.513486      0.657688      0.141786     Biso  1.000000 N
   N74        1.0     0.675010      0.511043      0.114838     Biso  1.000000 N
   N75        1.0     0.524887      0.674593      0.089199     Biso  1.000000 N
   N76        1.0     0.692740      0.521138      0.062605     Biso  1.000000 N
   N77        1.0     0.548468      0.678697      0.036575     Biso  1.000000 N
   N78        1.0     0.727795      0.513642      0.009300     Biso  1.000000 N
