#======================================================================

# CRYSTAL DATA

#----------------------------------------------------------------------

data_VESTA_phase_1


_chemical_name_common                  '6_4_5_4_6_3_5_pos                     '
_cell_length_a                         2.13141
_cell_length_b                         5.07856
_cell_length_c                         32.93749
_cell_angle_alpha                      89.30138
_cell_angle_beta                       88.34110
_cell_angle_gamma                      65.16587
_space_group_name_H-M_alt              'P 1'
_space_group_IT_number                 1

loop_
_space_group_symop_operation_xyz
   'x, y, z'

loop_
   _atom_site_label
   _atom_site_occupancy
   _atom_site_fract_x
   _atom_site_fract_y
   _atom_site_fract_z
   _atom_site_adp_type
   _atom_site_B_iso_or_equiv
   _atom_site_type_symbol
   N1         1.0     0.224355      0.019454      0.988312     Biso  1.000000 N
   N2         1.0     0.078155      0.183293      0.956073     Biso  1.000000 N
   N3         1.0     0.251333      0.025929      0.925256     Biso  1.000000 N
   N4         1.0     0.124700      0.173986      0.893567     Biso  1.000000 N
   N5         1.0     0.305512      0.007165      0.863670     Biso  1.000000 N
   N6         1.0     0.184965      0.144318      0.829970     Biso  1.000000 N
   N7         1.0     0.783027      0.056867      0.806355     Biso  1.000000 N
   N8         1.0     0.668959      0.187887      0.772292     Biso  1.000000 N
   N9         1.0     0.858411      0.012150      0.742865     Biso  1.000000 N
   N10        1.0     0.743322      0.144049      0.708915     Biso  1.000000 N
   N11        1.0     0.344217      0.054512      0.685082     Biso  1.000000 N
   N12        1.0     0.221415      0.193867      0.651824     Biso  1.000000 N
   N13        1.0     0.401465      0.030187      0.621204     Biso  1.000000 N
   N14        1.0     0.254888      0.193898      0.590620     Biso  1.000000 N
   N15        1.0     0.410440      0.054475      0.557349     Biso  1.000000 N
   N16        1.0     0.831645      0.143942      0.533541     Biso  1.000000 N
   N17        1.0     0.981162      0.012189      0.499557     Biso  1.000000 N
   N18        1.0     0.818630      0.187863      0.470214     Biso  1.000000 N
   N19        1.0     0.967380      0.056747      0.436103     Biso  1.000000 N
   N20        1.0     0.390481      0.144238      0.412495     Biso  1.000000 N
   N21        1.0     0.544123      0.005856      0.378979     Biso  1.000000 N
   N22        1.0     0.393349      0.172933      0.349167     Biso  1.000000 N
   N23        1.0     0.558621      0.026991      0.316966     Biso  1.000000 N
   N24        1.0     0.407631      0.194459      0.287238     Biso  1.000000 N
   N25        1.0     0.561810      0.056120      0.253554     Biso  1.000000 N
   N26        1.0     0.988643      0.139994      0.229637     Biso  1.000000 N
   N27        1.0     0.153400     -0.009550      0.196681     Biso  1.000000 N
   N28        1.0     1.017913      0.141270      0.164155     Biso  1.000000 N
   N29        1.0     0.614933      0.055852      0.139809     Biso  1.000000 N
   N30        1.0     0.492412      0.194806      0.106183     Biso  1.000000 N
   N31        1.0     0.674385      0.029377      0.075806     Biso  1.000000 N
   N32        1.0     0.540353      0.182680      0.044462     Biso  1.000000 N
   N33        1.0     0.720465      0.019694      0.012100     Biso  1.000000 N
   N34        1.0     0.224355      0.519454      0.988312     Biso  1.000000 N
   N35        1.0     0.078155      0.683293      0.956073     Biso  1.000000 N
   N36        1.0     0.251333      0.525929      0.925256     Biso  1.000000 N
   N37        1.0     0.124700      0.673986      0.893567     Biso  1.000000 N
   N38        1.0     0.305512      0.507165      0.863670     Biso  1.000000 N
   N39        1.0     0.184965      0.644318      0.829970     Biso  1.000000 N
   N40        1.0     0.783027      0.556867      0.806355     Biso  1.000000 N
   N41        1.0     0.668959      0.687887      0.772292     Biso  1.000000 N
   N42        1.0     0.858411      0.512150      0.742865     Biso  1.000000 N
   N43        1.0     0.743322      0.644050      0.708915     Biso  1.000000 N
   N44        1.0     0.344217      0.554512      0.685082     Biso  1.000000 N
   N45        1.0     0.221415      0.693867      0.651824     Biso  1.000000 N
   N46        1.0     0.401465      0.530187      0.621204     Biso  1.000000 N
   N47        1.0     0.254888      0.693898      0.590620     Biso  1.000000 N
   N48        1.0     0.410440      0.554475      0.557349     Biso  1.000000 N
   N49        1.0     0.831645      0.643942      0.533541     Biso  1.000000 N
   N50        1.0     0.981162      0.512189      0.499557     Biso  1.000000 N
   N51        1.0     0.818630      0.687863      0.470214     Biso  1.000000 N
   N52        1.0     0.967380      0.556747      0.436103     Biso  1.000000 N
   N53        1.0     0.390481      0.644238      0.412495     Biso  1.000000 N
   N54        1.0     0.544123      0.505856      0.378979     Biso  1.000000 N
   N55        1.0     0.393349      0.672933      0.349167     Biso  1.000000 N
   N56        1.0     0.558621      0.526991      0.316966     Biso  1.000000 N
   N57        1.0     0.407631      0.694459      0.287238     Biso  1.000000 N
   N58        1.0     0.561809      0.556120      0.253554     Biso  1.000000 N
   N59        1.0     0.988643      0.639994      0.229637     Biso  1.000000 N
   N60        1.0     0.153400      0.490450      0.196681     Biso  1.000000 N
   N61        1.0     1.017913      0.641270      0.164155     Biso  1.000000 N
   N62        1.0     0.614933      0.555852      0.139809     Biso  1.000000 N
   N63        1.0     0.492412      0.694806      0.106183     Biso  1.000000 N
   N64        1.0     0.674385      0.529377      0.075806     Biso  1.000000 N
   N65        1.0     0.540353      0.682680      0.044462     Biso  1.000000 N
   N66        1.0     0.720465      0.519694      0.012100     Biso  1.000000 N
