#======================================================================

# CRYSTAL DATA

#----------------------------------------------------------------------

data_VESTA_phase_1


_chemical_name_common                  '8_4_5_4_7_4_5_pos                     '
_cell_length_a                         2.13922
_cell_length_b                         5.03860
_cell_length_c                         37.10147
_cell_angle_alpha                      90.70118
_cell_angle_beta                       88.45695
_cell_angle_gamma                      64.87803
_space_group_name_H-M_alt              'P 1'
_space_group_IT_number                 1

loop_
_space_group_symop_operation_xyz
   'x, y, z'

loop_
   _atom_site_label
   _atom_site_occupancy
   _atom_site_fract_x
   _atom_site_fract_y
   _atom_site_fract_z
   _atom_site_adp_type
   _atom_site_B_iso_or_equiv
   _atom_site_type_symbol
   N1         1.0     0.225861      0.021256      0.989949     Biso  1.000000 N
   N2         1.0     0.078260      0.183028      0.961593     Biso  1.000000 N
   N3         1.0     0.249659      0.024661      0.933616     Biso  1.000000 N
   N4         1.0     0.110202      0.179750      0.906119     Biso  1.000000 N
   N5         1.0     0.286473      0.018110      0.878516     Biso  1.000000 N
   N6         1.0     0.153631      0.166757      0.850522     Biso  1.000000 N
   N7         1.0     0.336123     -0.002308      0.823381     Biso  1.000000 N
   N8         1.0     0.207300      0.140851      0.794085     Biso  1.000000 N
   N9         1.0     0.803421      0.054401      0.772622     Biso  1.000000 N
   N10        1.0     0.682949      0.188638      0.742791     Biso  1.000000 N
   N11        1.0     0.874830      0.010156      0.716162     Biso  1.000000 N
   N12        1.0     0.754270      0.145000      0.686400     Biso  1.000000 N
   N13        1.0     0.350450      0.059255      0.664817     Biso  1.000000 N
   N14        1.0     0.216299      0.207969      0.635855     Biso  1.000000 N
   N15        1.0     0.393984      0.045337      0.608099     Biso  1.000000 N
   N16        1.0     0.247647      0.206467      0.581201     Biso  1.000000 N
   N17        1.0     0.408963      0.059380      0.551425     Biso  1.000000 N
   N18        1.0     0.834011      0.144162      0.530138     Biso  1.000000 N
   N19        1.0     0.981790      0.011995      0.499716     Biso  1.000000 N
   N20        1.0     0.817644      0.187643      0.473852     Biso  1.000000 N
   N21        1.0     0.964435      0.056608      0.443342     Biso  1.000000 N
   N22        1.0     0.390224      0.140940      0.422210     Biso  1.000000 N
   N23        1.0     0.546006     -0.001065      0.392265     Biso  1.000000 N
   N24        1.0     0.392800      0.165800      0.365739     Biso  1.000000 N
   N25        1.0     0.562111      0.012337      0.337441     Biso  1.000000 N
   N26        1.0     0.424585      0.165692      0.310023     Biso  1.000000 N
   N27        1.0     0.607142     -0.002889      0.282572     Biso  1.000000 N
   N28        1.0     0.477792      0.140701      0.253410     Biso  1.000000 N
   N29        1.0     0.072837      0.055412      0.231923     Biso  1.000000 N
   N30        1.0     0.952600      0.189227      0.202077     Biso  1.000000 N
   N31        1.0     0.144417      0.010948      0.175437     Biso  1.000000 N
   N32        1.0     0.023287      0.146058      0.145643     Biso  1.000000 N
   N33        1.0     0.620149      0.059823      0.124028     Biso  1.000000 N
   N34        1.0     0.490141      0.204896      0.094758     Biso  1.000000 N
   N35        1.0     0.671888      0.037069      0.067541     Biso  1.000000 N
   N36        1.0     0.536857      0.187084      0.039803     Biso  1.000000 N
   N37        1.0     0.721461      0.016353      0.010929     Biso  1.000000 N
   N38        1.0     0.225861      0.521256      0.989949     Biso  1.000000 N
   N39        1.0     0.078260      0.683028      0.961593     Biso  1.000000 N
   N40        1.0     0.249659      0.524661      0.933616     Biso  1.000000 N
   N41        1.0     0.110202      0.679750      0.906119     Biso  1.000000 N
   N42        1.0     0.286473      0.518110      0.878516     Biso  1.000000 N
   N43        1.0     0.153631      0.666757      0.850522     Biso  1.000000 N
   N44        1.0     0.336123      0.497692      0.823381     Biso  1.000000 N
   N45        1.0     0.207300      0.640851      0.794085     Biso  1.000000 N
   N46        1.0     0.803421      0.554401      0.772622     Biso  1.000000 N
   N47        1.0     0.682949      0.688638      0.742791     Biso  1.000000 N
   N48        1.0     0.874830      0.510156      0.716162     Biso  1.000000 N
   N49        1.0     0.754270      0.645000      0.686400     Biso  1.000000 N
   N50        1.0     0.350450      0.559255      0.664817     Biso  1.000000 N
   N51        1.0     0.216299      0.707969      0.635855     Biso  1.000000 N
   N52        1.0     0.393983      0.545337      0.608099     Biso  1.000000 N
   N53        1.0     0.247647      0.706467      0.581201     Biso  1.000000 N
   N54        1.0     0.408963      0.559380      0.551425     Biso  1.000000 N
   N55        1.0     0.834011      0.644162      0.530138     Biso  1.000000 N
   N56        1.0     0.981790      0.511995      0.499716     Biso  1.000000 N
   N57        1.0     0.817644      0.687643      0.473852     Biso  1.000000 N
   N58        1.0     0.964435      0.556608      0.443342     Biso  1.000000 N
   N59        1.0     0.390224      0.640940      0.422210     Biso  1.000000 N
   N60        1.0     0.546006      0.498935      0.392265     Biso  1.000000 N
   N61        1.0     0.392799      0.665800      0.365739     Biso  1.000000 N
   N62        1.0     0.562111      0.512337      0.337441     Biso  1.000000 N
   N63        1.0     0.424585      0.665692      0.310023     Biso  1.000000 N
   N64        1.0     0.607142      0.497111      0.282572     Biso  1.000000 N
   N65        1.0     0.477792      0.640701      0.253410     Biso  1.000000 N
   N66        1.0     0.072837      0.555412      0.231923     Biso  1.000000 N
   N67        1.0     0.952600      0.689227      0.202077     Biso  1.000000 N
   N68        1.0     0.144417      0.510948      0.175437     Biso  1.000000 N
   N69        1.0     0.023287      0.646058      0.145643     Biso  1.000000 N
   N70        1.0     0.620149      0.559823      0.124028     Biso  1.000000 N
   N71        1.0     0.490141      0.704896      0.094758     Biso  1.000000 N
   N72        1.0     0.671888      0.537069      0.067541     Biso  1.000000 N
   N73        1.0     0.536857      0.687084      0.039803     Biso  1.000000 N
   N74        1.0     0.721461      0.516353      0.010929     Biso  1.000000 N
