#======================================================================

# CRYSTAL DATA

#----------------------------------------------------------------------

data_VESTA_phase_1


_chemical_name_common                  '8_4_5_4_6_4_5_pos                     '
_cell_length_a                         2.14656
_cell_length_b                         5.01076
_cell_length_c                         35.95129
_cell_angle_alpha                      88.40481
_cell_angle_beta                       88.17004
_cell_angle_gamma                      64.68405
_space_group_name_H-M_alt              'P 1'
_space_group_IT_number                 1

loop_
_space_group_symop_operation_xyz
   'x, y, z'

loop_
   _atom_site_label
   _atom_site_occupancy
   _atom_site_fract_x
   _atom_site_fract_y
   _atom_site_fract_z
   _atom_site_adp_type
   _atom_site_B_iso_or_equiv
   _atom_site_type_symbol
   N1         1.0     0.225287      0.024168      0.989951     Biso  1.000000 N
   N2         1.0     0.080373      0.185278      0.959995     Biso  1.000000 N
   N3         1.0     0.258793      0.021156      0.932212     Biso  1.000000 N
   N4         1.0     0.123591      0.168358      0.902694     Biso  1.000000 N
   N5         1.0     0.308066     -0.001703      0.875407     Biso  1.000000 N
   N6         1.0     0.175022      0.142498      0.845668     Biso  1.000000 N
   N7         1.0     0.356995      0.974225      0.818217     Biso  1.000000 N
   N8         1.0     0.221459      0.125475      0.787756     Biso  1.000000 N
   N9         1.0     0.810551      0.048216      0.765461     Biso  1.000000 N
   N10        1.0     0.672361      0.202096      0.735337     Biso  1.000000 N
   N11        1.0     0.850771      0.037983      0.707127     Biso  1.000000 N
   N12        1.0     0.708993      0.195480      0.677153     Biso  1.000000 N
   N13        1.0     0.292635      0.123994      0.654807     Biso  1.000000 N
   N14        1.0     0.142373      0.289827      0.625095     Biso  1.000000 N
   N15        1.0     0.313039      0.131794      0.596851     Biso  1.000000 N
   N16        1.0     0.166680      0.291654      0.568222     Biso  1.000000 N
   N17        1.0     0.344066      0.128351      0.538840     Biso  1.000000 N
   N18        1.0     0.782267      0.201562      0.516358     Biso  1.000000 N
   N19        1.0     0.952356      0.046388      0.486703     Biso  1.000000 N
   N20        1.0     0.798318      0.215021      0.458341     Biso  1.000000 N
   N21        1.0     0.964083      0.065280      0.428231     Biso  1.000000 N
   N22        1.0     0.397963      0.143628      0.406120     Biso  1.000000 N
   N23        1.0     0.560913      0.996116      0.375754     Biso  1.000000 N
   N24        1.0     0.400644      0.169423      0.348205     Biso  1.000000 N
   N25        1.0     0.551660      0.031178      0.318745     Biso  1.000000 N
   N26        1.0     0.391251      0.204591      0.291231     Biso  1.000000 N
   N27        1.0     0.553532      0.057547      0.260822     Biso  1.000000 N
   N28        1.0     0.986843      0.136334      0.238734     Biso  1.000000 N
   N29        1.0     0.151323     -0.012098      0.208552     Biso  1.000000 N
   N30        1.0     0.996316      0.157303      0.180255     Biso  1.000000 N
   N31        1.0     0.164899      0.003894      0.150525     Biso  1.000000 N
   N32        1.0     0.601396      0.078774      0.128055     Biso  1.000000 N
   N33        1.0     0.776909      0.917653      0.098552     Biso  1.000000 N
   N34        1.0     0.628121      0.080053      0.070116     Biso  1.000000 N
   N35        1.0     0.797111      0.924456      0.041692     Biso  1.000000 N
   N36        1.0     0.643042      0.094046      0.012215     Biso  1.000000 N
   N37        1.0     0.225286      0.524168      0.989951     Biso  1.000000 N
   N38        1.0     0.080373      0.685278      0.959995     Biso  1.000000 N
   N39        1.0     0.258793      0.521156      0.932212     Biso  1.000000 N
   N40        1.0     0.123591      0.668358      0.902694     Biso  1.000000 N
   N41        1.0     0.308066      0.498297      0.875407     Biso  1.000000 N
   N42        1.0     0.175022      0.642498      0.845668     Biso  1.000000 N
   N43        1.0     0.356995      0.474225      0.818217     Biso  1.000000 N
   N44        1.0     0.221459      0.625476      0.787756     Biso  1.000000 N
   N45        1.0     0.810551      0.548216      0.765461     Biso  1.000000 N
   N46        1.0     0.672361      0.702096      0.735337     Biso  1.000000 N
   N47        1.0     0.850771      0.537983      0.707127     Biso  1.000000 N
   N48        1.0     0.708993      0.695480      0.677153     Biso  1.000000 N
   N49        1.0     0.292635      0.623994      0.654807     Biso  1.000000 N
   N50        1.0     0.142373      0.789827      0.625095     Biso  1.000000 N
   N51        1.0     0.313038      0.631795      0.596851     Biso  1.000000 N
   N52        1.0     0.166680      0.791654      0.568222     Biso  1.000000 N
   N53        1.0     0.344066      0.628351      0.538840     Biso  1.000000 N
   N54        1.0     0.782267      0.701562      0.516358     Biso  1.000000 N
   N55        1.0     0.952356      0.546388      0.486703     Biso  1.000000 N
   N56        1.0     0.798318      0.715021      0.458341     Biso  1.000000 N
   N57        1.0     0.964083      0.565280      0.428231     Biso  1.000000 N
   N58        1.0     0.397963      0.643628      0.406120     Biso  1.000000 N
   N59        1.0     0.560913      0.496116      0.375754     Biso  1.000000 N
   N60        1.0     0.400645      0.669423      0.348205     Biso  1.000000 N
   N61        1.0     0.551660      0.531178      0.318745     Biso  1.000000 N
   N62        1.0     0.391251      0.704591      0.291231     Biso  1.000000 N
   N63        1.0     0.553532      0.557547      0.260822     Biso  1.000000 N
   N64        1.0     0.986843      0.636334      0.238734     Biso  1.000000 N
   N65        1.0     0.151323      0.487902      0.208552     Biso  1.000000 N
   N66        1.0     0.996316      0.657303      0.180255     Biso  1.000000 N
   N67        1.0     0.164899      0.503894      0.150525     Biso  1.000000 N
   N68        1.0     0.601396      0.578774      0.128055     Biso  1.000000 N
   N69        1.0     0.776908      0.417653      0.098552     Biso  1.000000 N
   N70        1.0     0.628121      0.580053      0.070116     Biso  1.000000 N
   N71        1.0     0.797111      0.424457      0.041692     Biso  1.000000 N
   N72        1.0     0.643042      0.594046      0.012215     Biso  1.000000 N
