#======================================================================

# CRYSTAL DATA

#----------------------------------------------------------------------

data_VESTA_phase_1


_chemical_name_common                  '6_4_5_4_6_4_5_3_pos                   '
_cell_length_a                         2.52034
_cell_length_b                         2.52034
_cell_length_c                         37.19385
_cell_angle_alpha                      97.01814
_cell_angle_beta                       97.01814
_cell_angle_gamma                      50.26359
_space_group_name_H-M_alt              'P 1'
_space_group_IT_number                 1

loop_
_space_group_symop_operation_xyz
   'x, y, z'

loop_
   _atom_site_label
   _atom_site_occupancy
   _atom_site_fract_x
   _atom_site_fract_y
   _atom_site_fract_z
   _atom_site_adp_type
   _atom_site_B_iso_or_equiv
   _atom_site_type_symbol
   N1         1.0     0.415136      0.415136      0.990993     Biso  1.000000 N
   N2         1.0     0.229785      0.229785      0.960916     Biso  1.000000 N
   N3         1.0     0.370541      0.370541      0.934379     Biso  1.000000 N
   N4         1.0     0.200954      0.200954      0.905420     Biso  1.000000 N
   N5         1.0     0.343836      0.343836      0.878903     Biso  1.000000 N
   N6         1.0     0.170035      0.170035      0.848740     Biso  1.000000 N
   N7         1.0     0.087957      0.087957      0.719059     Biso  1.000000 N
   N8         1.0     0.902073      0.902073      0.689726     Biso  1.000000 N
   N9         1.0     0.033829      0.033829      0.662287     Biso  1.000000 N
   N10        1.0     0.846122      0.846122      0.634506     Biso  1.000000 N
   N11        1.0    -0.026328     -0.026328      0.605541     Biso  1.000000 N
   N12        1.0     0.794413      0.794413      0.476184     Biso  1.000000 N
   N13        1.0     0.904512      0.904512      0.446109     Biso  1.000000 N
   N14        1.0     0.703173      0.703173      0.419738     Biso  1.000000 N
   N15        1.0     0.807669      0.807669      0.390670     Biso  1.000000 N
   N16        1.0     0.606286      0.606286      0.364291     Biso  1.000000 N
   N17        1.0     0.716207      0.716207      0.334198     Biso  1.000000 N
   N18        1.0     0.535685      0.535685      0.204693     Biso  1.000000 N
   N19        1.0     0.661343      0.661343      0.175524     Biso  1.000000 N
   N20        1.0     0.472322      0.472322      0.147933     Biso  1.000000 N
   N21        1.0     0.601345      0.601345      0.120222     Biso  1.000000 N
   N22        1.0     0.412009      0.412009      0.091171     Biso  1.000000 N
   N23        1.0     0.729641      0.729641      0.827514     Biso  1.000000 N
   N24        1.0     0.559436      0.559436      0.797329     Biso  1.000000 N
   N25        1.0     0.704033      0.704032      0.770547     Biso  1.000000 N
   N26        1.0     0.530873      0.530873      0.740667     Biso  1.000000 N
   N27        1.0     0.373204      0.373203      0.583838     Biso  1.000000 N
   N28        1.0     0.488347      0.488347      0.554323     Biso  1.000000 N
   N29        1.0     0.288317      0.288317      0.527318     Biso  1.000000 N
   N30        1.0     0.398635      0.398635      0.497400     Biso  1.000000 N
   N31        1.0     0.111905      0.111905      0.312958     Biso  1.000000 N
   N32        1.0     0.221740      0.221740      0.282996     Biso  1.000000 N
   N33        1.0     0.021804      0.021804      0.255956     Biso  1.000000 N
   N34        1.0     0.136642      0.136642      0.226386     Biso  1.000000 N
   N35        1.0     0.962726      0.962726      0.069545     Biso  1.000000 N
   N36        1.0     0.780407      0.780407      0.040255     Biso  1.000000 N
   N37        1.0     0.915886      0.915886      0.011764     Biso  1.000000 N
