#======================================================================

# CRYSTAL DATA

#----------------------------------------------------------------------

data_VESTA_phase_1


_chemical_name_common                  ''
_cell_length_a                         40.89374
_cell_length_b                         2.14838
_cell_length_c                         2.52569
_cell_angle_alpha                      64.18951
_cell_angle_beta                       87.97340
_cell_angle_gamma                      89.97875
_space_group_name_H-M_alt              'P 1'
_space_group_IT_number                 1

loop_
_space_group_symop_operation_xyz
   'x, y, z'

loop_
   _atom_site_label
   _atom_site_occupancy
   _atom_site_fract_x
   _atom_site_fract_y
   _atom_site_fract_z
   _atom_site_adp_type
   _atom_site_B_iso_or_equiv
   _atom_site_type_symbol
   N1         1.0     0.008383      0.758416     -0.016832     Biso  1.000000 N
   N2         1.0     0.034063      0.598847      0.302307     Biso  1.000000 N
   N3         1.0     0.059398      0.758971     -0.017941     Biso  1.000000 N
   N4         1.0     0.084301      0.606600      0.286800     Biso  1.000000 N
   N5         1.0     0.109434      0.770305     -0.040611     Biso  1.000000 N
   N6         1.0     0.134561      0.621967      0.256066     Biso  1.000000 N
   N7         1.0     0.159520      0.788929     -0.077858     Biso  1.000000 N
   N8         1.0     0.185580      0.638591      0.222818     Biso  1.000000 N
   N9         1.0     0.205317      0.217796      0.064409     Biso  1.000000 N
   N10        1.0     0.231524      0.072216      0.355567     Biso  1.000000 N
   N11        1.0     0.256388      0.245388      0.009223     Biso  1.000000 N
   N12        1.0     0.282871      0.102624      0.294752     Biso  1.000000 N
   N13        1.0     0.302266      0.683594      0.132812     Biso  1.000000 N
   N14        1.0     0.328904      0.541216      0.417567     Biso  1.000000 N
   N15        1.0     0.353196      0.716871      0.066258     Biso  1.000000 N
   N16        1.0     0.378973      0.582198      0.335604     Biso  1.000000 N
   N17        1.0     0.403283      0.757558     -0.015116     Biso  1.000000 N
   N18        1.0     0.429915      0.614667      0.270667     Biso  1.000000 N
   N19        1.0     0.449293      0.195014      0.109972     Biso  1.000000 N
   N20        1.0     0.475738      0.050593      0.398814     Biso  1.000000 N
   N21        1.0     0.500586      0.223252      0.053496     Biso  1.000000 N
   N22        1.0     0.526868      0.077085      0.345829     Biso  1.000000 N
   N23        1.0     0.546526      0.653311      0.193378     Biso  1.000000 N
   N24        1.0     0.572470      0.500197      0.499605     Biso  1.000000 N
   N25        1.0     0.597701      0.666368      0.167265     Biso  1.000000 N
   N26        1.0     0.622714      0.516791      0.466417     Biso  1.000000 N
   N27        1.0     0.647918      0.679765      0.140471     Biso  1.000000 N
   N28        1.0     0.672945      0.527358      0.445283     Biso  1.000000 N
   N29        1.0     0.699163      0.693796      0.112408     Biso  1.000000 N
   N30        1.0     0.718620      0.128690      0.242620     Biso  1.000000 N
   N31        1.0     0.745161      0.288135     -0.076270     Biso  1.000000 N
   N32        1.0     0.770460      0.127527      0.244946     Biso  1.000000 N
   N33        1.0     0.790304      0.689878      0.120243     Biso  1.000000 N
   N34        1.0     0.815349      0.522086      0.455827     Biso  1.000000 N
   N35        1.0     0.841221      0.674800      0.150399     Biso  1.000000 N
   N36        1.0     0.865338      0.513627      0.472745     Biso  1.000000 N
   N37        1.0     0.892061      0.673543      0.152914     Biso  1.000000 N
   N38        1.0     0.911554      0.102249      0.295501     Biso  1.000000 N
   N39        1.0     0.938052      0.262034     -0.024069     Biso  1.000000 N
   N40        1.0     0.962708      0.103432      0.293136     Biso  1.000000 N
   N41        1.0     0.989376      0.266211     -0.032423     Biso  1.000000 N
