data_image0
_cell_length_a       36.5894
_cell_length_b       2.18476
_cell_length_c       2.44573
_cell_angle_alpha    63.5445
_cell_angle_beta     87.7253
_cell_angle_gamma    87.2829

_symmetry_space_group_name_H-M    "P 1"
_symmetry_int_tables_number       1

loop_
  _symmetry_equiv_pos_as_xyz
  'x, y, z'

loop_
  _atom_site_label
  _atom_site_occupancy
  _atom_site_fract_x
  _atom_site_fract_y
  _atom_site_fract_z
  _atom_site_thermal_displace_type
  _atom_site_B_iso_or_equiv
  _atom_site_type_symbol
  N1       1.0000 0.01027  0.60418  0.11384  Biso   1.000  N
  N2       1.0000 0.03915  0.41722  0.44128  Biso   1.000  N
  N3       1.0000 0.06740  0.55258  0.11031  Biso   1.000  N
  N4       1.0000 0.09553  0.35012  0.41829  Biso   1.000  N
  N5       1.0000 0.12357  0.46469  0.08530  Biso   1.000  N
  N6       1.0000 0.15178  0.24118  0.39334  Biso   1.000  N
  N7       1.0000 0.17977  0.33380  0.06344  Biso   1.000  N
  N8       1.0000 0.20769  0.09106  0.37637  Biso   1.000  N
  N9       1.0000 0.23567  0.16677  0.05141  Biso   1.000  N
  N10      1.0000 0.26355  0.92148  0.36542  Biso   1.000  N
  N11      1.0000 0.29169  0.99217  0.04260  Biso   1.000  N
  N12      1.0000 0.31930  0.74341  0.35990  Biso   1.000  N
  N13      1.0000 0.34744  0.81510  0.03699  Biso   1.000  N
  N14      1.0000 0.37535  0.57187  0.35085  Biso   1.000  N
  N15      1.0000 0.40333  0.65160  0.02521  Biso   1.000  N
  N16      1.0000 0.43131  0.41421  0.33757  Biso   1.000  N
  N17      1.0000 0.45932  0.51356  0.00697  Biso   1.000  N
  N18      1.0000 0.48758  0.29867  0.31462  Biso   1.000  N
  N19      1.0000 0.51564  0.42170  0.98123  Biso   1.000  N
  N20      1.0000 0.54378  0.22864  0.28912  Biso   1.000  N
  N21      1.0000 0.57203  0.36932  0.95798  Biso   1.000  N
  N22      1.0000 0.60091  0.18420  0.28540  Biso   1.000  N
  N23      1.0000 0.62281  0.73584  0.14893  Biso   1.000  N
  N24      1.0000 0.65174  0.55908  0.47554  Biso   1.000  N
  N25      1.0000 0.67976  0.73662  0.13948  Biso   1.000  N
  N26      1.0000 0.70790  0.62882  0.44050  Biso   1.000  N
  N27      1.0000 0.73545  0.83217  0.09797  Biso   1.000  N
  N28      1.0000 0.76397  0.73872  0.39362  Biso   1.000  N
  N29      1.0000 0.79133  0.94367  0.05075  Biso   1.000  N
  N30      1.0000 0.81977  0.85373  0.34776  Biso   1.000  N
  N31      1.0000 0.84714  0.05814  0.00503  Biso   1.000  N
  N32      1.0000 0.87566  0.96317  0.30081  Biso   1.000  N
  N33      1.0000 0.90324  0.16498  0.95849  Biso   1.000  N
  N34      1.0000 0.93138  0.05440  0.25970  Biso   1.000  N
  N35      1.0000 0.95942  0.23034  0.92371  Biso   1.000  N
  N36      1.0000 0.98837  0.05280  0.25027  Biso   1.000  N
