data_image0
_cell_length_a       27.485
_cell_length_b       2.15892
_cell_length_c       2.48128
_cell_angle_alpha    65.5022
_cell_angle_beta     87.8309
_cell_angle_gamma    90.2994

_symmetry_space_group_name_H-M    "P 1"
_symmetry_int_tables_number       1

loop_
  _symmetry_equiv_pos_as_xyz
  'x, y, z'

loop_
  _atom_site_label
  _atom_site_occupancy
  _atom_site_fract_x
  _atom_site_fract_y
  _atom_site_fract_z
  _atom_site_thermal_displace_type
  _atom_site_B_iso_or_equiv
  _atom_site_type_symbol
  N1       1.0000 0.01393  0.64652  0.21607  Biso   1.000  N
  N2       1.0000 0.05276  0.47127  0.57301  Biso   1.000  N
  N3       1.0000 0.08133  0.04476  0.40744  Biso   1.000  N
  N4       1.0000 0.11965  0.88047  0.72878  Biso   1.000  N
  N5       1.0000 0.15657  0.06421  0.38722  Biso   1.000  N
  N6       1.0000 0.19318  0.91294  0.69094  Biso   1.000  N
  N7       1.0000 0.23166  0.09645  0.33489  Biso   1.000  N
  N8       1.0000 0.26052  0.54080  0.45980  Biso   1.000  N
  N9       1.0000 0.29884  0.71912  0.10737  Biso   1.000  N
  N10      1.0000 0.33575  0.55546  0.41509  Biso   1.000  N
  N11      1.0000 0.37277  0.71942  0.08268  Biso   1.000  N
  N12      1.0000 0.40961  0.54350  0.40314  Biso   1.000  N
  N13      1.0000 0.44675  0.70361  0.07282  Biso   1.000  N
  N14      1.0000 0.48357  0.53874  0.38322  Biso   1.000  N
  N15      1.0000 0.52205  0.71282  0.03697  Biso   1.000  N
  N16      1.0000 0.55113  0.15648  0.16207  Biso   1.000  N
  N17      1.0000 0.58928  0.33700  0.80297  Biso   1.000  N
  N18      1.0000 0.62638  0.18211  0.10341  Biso   1.000  N
  N19      1.0000 0.66337  0.36133  0.75608  Biso   1.000  N
  N20      1.0000 0.70022  0.20438  0.06363  Biso   1.000  N
  N21      1.0000 0.73752  0.37676  0.72679  Biso   1.000  N
  N22      1.0000 0.77565  0.22079  0.04738  Biso   1.000  N
  N23      1.0000 0.80460  0.79042  0.90395  Biso   1.000  N
  N24      1.0000 0.84270  0.63811  0.22308  Biso   1.000  N
  N25      1.0000 0.87985  0.81866  0.87957  Biso   1.000  N
  N26      1.0000 0.91794  0.66068  0.20311  Biso   1.000  N
  N27      1.0000 0.94672  0.23829  0.03845  Biso   1.000  N
  N28      1.0000 0.98571  0.06492  0.39005  Biso   1.000  N
