data_image0
_cell_length_a       34.2994
_cell_length_b       2.17259
_cell_length_c       2.45802
_cell_angle_alpha    63.7896
_cell_angle_beta     86.9372
_cell_angle_gamma    86.0663

_symmetry_space_group_name_H-M    "P 1"
_symmetry_int_tables_number       1

loop_
  _symmetry_equiv_pos_as_xyz
  'x, y, z'

loop_
  _atom_site_label
  _atom_site_occupancy
  _atom_site_fract_x
  _atom_site_fract_y
  _atom_site_fract_z
  _atom_site_thermal_displace_type
  _atom_site_B_iso_or_equiv
  _atom_site_type_symbol
  N1       1.0000 0.01536  0.76775  0.09793  Biso   1.000  N
  N2       1.0000 0.04563  0.55091  0.39753  Biso   1.000  N
  N3       1.0000 0.07545  0.65334  0.05788  Biso   1.000  N
  N4       1.0000 0.10567  0.43147  0.35613  Biso   1.000  N
  N5       1.0000 0.13556  0.53273  0.02114  Biso   1.000  N
  N6       1.0000 0.16557  0.31036  0.32742  Biso   1.000  N
  N7       1.0000 0.19574  0.42145  0.99928  Biso   1.000  N
  N8       1.0000 0.22645  0.21313  0.32763  Biso   1.000  N
  N9       1.0000 0.24975  0.75229  0.19284  Biso   1.000  N
  N10      1.0000 0.28074  0.55565  0.50922  Biso   1.000  N
  N11      1.0000 0.31146  0.69264  0.16627  Biso   1.000  N
  N12      1.0000 0.33492  0.10673  0.28715  Biso   1.000  N
  N13      1.0000 0.36553  0.25115  0.93197  Biso   1.000  N
  N14      1.0000 0.39556  0.06583  0.23873  Biso   1.000  N
  N15      1.0000 0.42549  0.19985  0.90878  Biso   1.000  N
  N16      1.0000 0.45621  0.00140  0.24133  Biso   1.000  N
  N17      1.0000 0.47968  0.54682  0.10169  Biso   1.000  N
  N18      1.0000 0.51028  0.35881  0.42707  Biso   1.000  N
  N19      1.0000 0.54049  0.52079  0.09444  Biso   1.000  N
  N20      1.0000 0.57031  0.38645  0.39560  Biso   1.000  N
  N21      1.0000 0.60014  0.56734  0.05892  Biso   1.000  N
  N22      1.0000 0.63036  0.43523  0.35909  Biso   1.000  N
  N23      1.0000 0.66016  0.60989  0.02851  Biso   1.000  N
  N24      1.0000 0.69020  0.46347  0.33795  Biso   1.000  N
  N25      1.0000 0.72007  0.62832  0.00931  Biso   1.000  N
  N26      1.0000 0.75036  0.47434  0.31276  Biso   1.000  N
  N27      1.0000 0.78027  0.63035  0.97744  Biso   1.000  N
  N28      1.0000 0.81026  0.46569  0.27836  Biso   1.000  N
  N29      1.0000 0.84042  0.60674  0.94359  Biso   1.000  N
  N30      1.0000 0.87108  0.41188  0.26689  Biso   1.000  N
  N31      1.0000 0.89462  0.95475  0.12950  Biso   1.000  N
  N32      1.0000 0.92528  0.75080  0.45712  Biso   1.000  N
  N33      1.0000 0.95542  0.87180  0.12746  Biso   1.000  N
  N34      1.0000 0.98553  0.65986  0.43308  Biso   1.000  N
