data_image0
_cell_length_a       39.0168
_cell_length_b       2.1947
_cell_length_c       2.43703
_cell_angle_alpha    63.2121
_cell_angle_beta     86.8236
_cell_angle_gamma    85.3215

_symmetry_space_group_name_H-M    "P 1"
_symmetry_int_tables_number       1

loop_
  _symmetry_equiv_pos_as_xyz
  'x, y, z'

loop_
  _atom_site_label
  _atom_site_occupancy
  _atom_site_fract_x
  _atom_site_fract_y
  _atom_site_fract_z
  _atom_site_thermal_displace_type
  _atom_site_B_iso_or_equiv
  _atom_site_type_symbol
  N1       1.0000 0.01051  0.54473  0.14405  Biso   1.000  N
  N2       1.0000 0.03735  0.33696  0.47921  Biso   1.000  N
  N3       1.0000 0.06415  0.45368  0.15214  Biso   1.000  N
  N4       1.0000 0.09027  0.25110  0.46779  Biso   1.000  N
  N5       1.0000 0.11696  0.37920  0.13762  Biso   1.000  N
  N6       1.0000 0.14335  0.19851  0.45127  Biso   1.000  N
  N7       1.0000 0.16983  0.35106  0.12225  Biso   1.000  N
  N8       1.0000 0.19615  0.19332  0.43867  Biso   1.000  N
  N9       1.0000 0.22253  0.36763  0.11097  Biso   1.000  N
  N10      1.0000 0.24889  0.22628  0.42346  Biso   1.000  N
  N11      1.0000 0.27522  0.41117  0.09143  Biso   1.000  N
  N12      1.0000 0.30150  0.27085  0.40050  Biso   1.000  N
  N13      1.0000 0.32792  0.44490  0.06544  Biso   1.000  N
  N14      1.0000 0.35432  0.28678  0.37552  Biso   1.000  N
  N15      1.0000 0.38082  0.44057  0.04573  Biso   1.000  N
  N16      1.0000 0.40722  0.25905  0.36143  Biso   1.000  N
  N17      1.0000 0.43381  0.38858  0.03393  Biso   1.000  N
  N18      1.0000 0.46012  0.18732  0.35085  Biso   1.000  N
  N19      1.0000 0.48680  0.29798  0.02352  Biso   1.000  N
  N20      1.0000 0.51304  0.08314  0.33954  Biso   1.000  N
  N21      1.0000 0.53975  0.18115  0.01363  Biso   1.000  N
  N22      1.0000 0.56594  0.95701  0.33227  Biso   1.000  N
  N23      1.0000 0.59261  0.04621  0.00857  Biso   1.000  N
  N24      1.0000 0.61880  0.81616  0.32882  Biso   1.000  N
  N25      1.0000 0.64547  0.90016  0.00571  Biso   1.000  N
  N26      1.0000 0.67165  0.66993  0.32262  Biso   1.000  N
  N27      1.0000 0.69838  0.75853  0.99523  Biso   1.000  N
  N28      1.0000 0.72448  0.53042  0.31213  Biso   1.000  N
  N29      1.0000 0.75118  0.62027  0.98665  Biso   1.000  N
  N30      1.0000 0.77746  0.39696  0.30467  Biso   1.000  N
  N31      1.0000 0.80407  0.49320  0.98089  Biso   1.000  N
  N32      1.0000 0.83037  0.27625  0.29950  Biso   1.000  N
  N33      1.0000 0.85693  0.38538  0.97123  Biso   1.000  N
  N34      1.0000 0.88332  0.17964  0.28454  Biso   1.000  N
  N35      1.0000 0.90999  0.29810  0.95379  Biso   1.000  N
  N36      1.0000 0.93614  0.09530  0.26849  Biso   1.000  N
  N37      1.0000 0.96292  0.21467  0.94064  Biso   1.000  N
  N38      1.0000 0.98978  0.00785  0.27533  Biso   1.000  N
