data_image0
_cell_length_a       32.4369
_cell_length_b       2.18437
_cell_length_c       2.44837
_cell_angle_alpha    63.5269
_cell_angle_beta     89.9721
_cell_angle_gamma    89.9017

_symmetry_space_group_name_H-M    "P 1"
_symmetry_int_tables_number       1

loop_
  _symmetry_equiv_pos_as_xyz
  'x, y, z'

loop_
  _atom_site_label
  _atom_site_occupancy
  _atom_site_fract_x
  _atom_site_fract_y
  _atom_site_fract_z
  _atom_site_thermal_displace_type
  _atom_site_B_iso_or_equiv
  _atom_site_type_symbol
  N1       1.0000 0.01490  0.00792  0.09328  Biso   1.000  N
  N2       1.0000 0.04651  0.82320  0.41167  Biso   1.000  N
  N3       1.0000 0.07821  0.97294  0.09091  Biso   1.000  N
  N4       1.0000 0.10989  0.81489  0.41292  Biso   1.000  N
  N5       1.0000 0.14154  0.99285  0.09543  Biso   1.000  N
  N6       1.0000 0.17334  0.86515  0.41631  Biso   1.000  N
  N7       1.0000 0.20469  0.07195  0.09453  Biso   1.000  N
  N8       1.0000 0.23643  0.97438  0.40612  Biso   1.000  N
  N9       1.0000 0.26773  0.19238  0.07572  Biso   1.000  N
  N10      1.0000 0.29948  0.10716  0.38222  Biso   1.000  N
  N11      1.0000 0.33060  0.33137  0.05353  Biso   1.000  N
  N12      1.0000 0.36237  0.23667  0.36756  Biso   1.000  N
  N13      1.0000 0.39369  0.45339  0.04735  Biso   1.000  N
  N14      1.0000 0.42559  0.34594  0.36477  Biso   1.000  N
  N15      1.0000 0.45667  0.55345  0.04012  Biso   1.000  N
  N16      1.0000 0.48872  0.42451  0.35556  Biso   1.000  N
  N17      1.0000 0.52094  0.60165  0.01428  Biso   1.000  N
  N18      1.0000 0.54547  0.04076  0.13504  Biso   1.000  N
  N19      1.0000 0.57802  0.20480  0.80509  Biso   1.000  N
  N20      1.0000 0.61055  0.03790  0.13571  Biso   1.000  N
  N21      1.0000 0.63510  0.59695  0.01525  Biso   1.000  N
  N22      1.0000 0.66734  0.41776  0.35640  Biso   1.000  N
  N23      1.0000 0.69939  0.54702  0.04098  Biso   1.000  N
  N24      1.0000 0.73054  0.34152  0.36489  Biso   1.000  N
  N25      1.0000 0.76244  0.45318  0.04679  Biso   1.000  N
  N26      1.0000 0.79387  0.24077  0.36621  Biso   1.000  N
  N27      1.0000 0.82566  0.34133  0.05141  Biso   1.000  N
  N28      1.0000 0.85687  0.12136  0.37985  Biso   1.000  N
  N29      1.0000 0.88865  0.21179  0.07264  Biso   1.000  N
  N30      1.0000 0.92000  0.99567  0.40292  Biso   1.000  N
  N31      1.0000 0.95174  0.09419  0.09120  Biso   1.000  N
  N32      1.0000 0.98309  0.88521  0.41334  Biso   1.000  N
