data_image0
_cell_length_a       36.6852
_cell_length_b       2.14694
_cell_length_c       2.46745
_cell_angle_alpha    66.0135
_cell_angle_beta     89.2966
_cell_angle_gamma    89.9158

_symmetry_space_group_name_H-M    "P 1"
_symmetry_int_tables_number       1

loop_
  _symmetry_equiv_pos_as_xyz
  'x, y, z'

loop_
  _atom_site_label
  _atom_site_occupancy
  _atom_site_fract_x
  _atom_site_fract_y
  _atom_site_fract_z
  _atom_site_thermal_displace_type
  _atom_site_B_iso_or_equiv
  _atom_site_type_symbol
  N1       1.0000 0.00917  0.78808  0.86513  Biso   1.000  N
  N2       1.0000 0.03784  0.61962  0.19812  Biso   1.000  N
  N3       1.0000 0.06584  0.77974  0.87330  Biso   1.000  N
  N4       1.0000 0.09320  0.61422  0.19372  Biso   1.000  N
  N5       1.0000 0.12124  0.78288  0.86097  Biso   1.000  N
  N6       1.0000 0.14885  0.62479  0.17408  Biso   1.000  N
  N7       1.0000 0.17674  0.79808  0.83815  Biso   1.000  N
  N8       1.0000 0.20436  0.63952  0.15276  Biso   1.000  N
  N9       1.0000 0.23217  0.80805  0.82258  Biso   1.000  N
  N10      1.0000 0.26099  0.65039  0.14877  Biso   1.000  N
  N11      1.0000 0.28265  0.21681  0.00969  Biso   1.000  N
  N12      1.0000 0.31143  0.06387  0.33094  Biso   1.000  N
  N13      1.0000 0.33927  0.24945  0.99057  Biso   1.000  N
  N14      1.0000 0.36680  0.10537  0.29768  Biso   1.000  N
  N15      1.0000 0.39454  0.29171  0.95455  Biso   1.000  N
  N16      1.0000 0.42342  0.13208  0.27791  Biso   1.000  N
  N17      1.0000 0.44488  0.70188  0.12396  Biso   1.000  N
  N18      1.0000 0.47408  0.52635  0.47911  Biso   1.000  N
  N19      1.0000 0.49541  0.09599  0.32494  Biso   1.000  N
  N20      1.0000 0.52426  0.93099  0.65901  Biso   1.000  N
  N21      1.0000 0.55191  0.10662  0.33152  Biso   1.000  N
  N22      1.0000 0.57948  0.95093  0.65273  Biso   1.000  N
  N23      1.0000 0.60723  0.12981  0.32284  Biso   1.000  N
  N24      1.0000 0.63505  0.97204  0.63741  Biso   1.000  N
  N25      1.0000 0.66264  0.14637  0.30375  Biso   1.000  N
  N26      1.0000 0.69031  0.98300  0.61925  Biso   1.000  N
  N27      1.0000 0.71897  0.15155  0.27589  Biso   1.000  N
  N28      1.0000 0.74068  0.59122  0.40677  Biso   1.000  N
  N29      1.0000 0.76933  0.75420  0.06928  Biso   1.000  N
  N30      1.0000 0.79704  0.57662  0.39575  Biso   1.000  N
  N31      1.0000 0.82462  0.72585  0.07530  Biso   1.000  N
  N32      1.0000 0.85241  0.54856  0.40219  Biso   1.000  N
  N33      1.0000 0.88105  0.70491  0.06998  Biso   1.000  N
  N34      1.0000 0.90294  0.13760  0.20439  Biso   1.000  N
  N35      1.0000 0.93171  0.29349  0.87208  Biso   1.000  N
  N36      1.0000 0.95925  0.12982  0.19715  Biso   1.000  N
  N37      1.0000 0.98825  0.29006  0.86278  Biso   1.000  N
