data_image0
_cell_length_a       32.8933
_cell_length_b       2.16473
_cell_length_c       2.45757
_cell_angle_alpha    65.7826
_cell_angle_beta     87.2638
_cell_angle_gamma    89.6473

_symmetry_space_group_name_H-M    "P 1"
_symmetry_int_tables_number       1

loop_
  _symmetry_equiv_pos_as_xyz
  'x, y, z'

loop_
  _atom_site_label
  _atom_site_occupancy
  _atom_site_fract_x
  _atom_site_fract_y
  _atom_site_fract_z
  _atom_site_thermal_displace_type
  _atom_site_B_iso_or_equiv
  _atom_site_type_symbol
  N1       1.0000 0.01383  0.75546  0.95432  Biso   1.000  N
  N2       1.0000 0.04573  0.58867  0.26668  Biso   1.000  N
  N3       1.0000 0.07677  0.74510  0.92357  Biso   1.000  N
  N4       1.0000 0.10724  0.56423  0.23098  Biso   1.000  N
  N5       1.0000 0.13843  0.72300  0.89114  Biso   1.000  N
  N6       1.0000 0.17001  0.55583  0.20979  Biso   1.000  N
  N7       1.0000 0.19428  0.11833  0.06561  Biso   1.000  N
  N8       1.0000 0.22614  0.95413  0.37752  Biso   1.000  N
  N9       1.0000 0.25709  0.11678  0.02794  Biso   1.000  N
  N10      1.0000 0.28785  0.93982  0.32489  Biso   1.000  N
  N11      1.0000 0.31876  0.10390  0.97263  Biso   1.000  N
  N12      1.0000 0.35068  0.94237  0.28001  Biso   1.000  N
  N13      1.0000 0.37501  0.50715  0.13026  Biso   1.000  N
  N14      1.0000 0.40690  0.34559  0.43893  Biso   1.000  N
  N15      1.0000 0.43777  0.51219  0.08906  Biso   1.000  N
  N16      1.0000 0.46855  0.33981  0.38857  Biso   1.000  N
  N17      1.0000 0.49951  0.50618  0.04192  Biso   1.000  N
  N18      1.0000 0.53133  0.34433  0.35511  Biso   1.000  N
  N19      1.0000 0.55560  0.91184  0.20561  Biso   1.000  N
  N20      1.0000 0.58753  0.75705  0.51879  Biso   1.000  N
  N21      1.0000 0.61855  0.94364  0.17528  Biso   1.000  N
  N22      1.0000 0.64926  0.80552  0.47903  Biso   1.000  N
  N23      1.0000 0.68033  0.00891  0.13188  Biso   1.000  N
  N24      1.0000 0.71105  0.87942  0.43283  Biso   1.000  N
  N25      1.0000 0.74214  0.08593  0.08843  Biso   1.000  N
  N26      1.0000 0.77278  0.95332  0.39409  Biso   1.000  N
  N27      1.0000 0.80398  0.15673  0.05642  Biso   1.000  N
  N28      1.0000 0.83450  0.01450  0.36864  Biso   1.000  N
  N29      1.0000 0.86575  0.20658  0.03400  Biso   1.000  N
  N30      1.0000 0.89644  0.05255  0.34601  Biso   1.000  N
  N31      1.0000 0.92749  0.23638  0.00555  Biso   1.000  N
  N32      1.0000 0.95813  0.08154  0.31129  Biso   1.000  N
  N33      1.0000 0.99058  0.25570  0.95817  Biso   1.000  N
