data_image0
_cell_length_a       34.833
_cell_length_b       2.20222
_cell_length_c       2.4369
_cell_angle_alpha    63.209
_cell_angle_beta     90.0941
_cell_angle_gamma    90.1434

_symmetry_space_group_name_H-M    "P 1"
_symmetry_int_tables_number       1

loop_
  _symmetry_equiv_pos_as_xyz
  'x, y, z'

loop_
  _atom_site_label
  _atom_site_occupancy
  _atom_site_fract_x
  _atom_site_fract_y
  _atom_site_fract_z
  _atom_site_thermal_displace_type
  _atom_site_B_iso_or_equiv
  _atom_site_type_symbol
  N1       1.0000 0.01497  0.94159  0.02618  Biso   1.000  N
  N2       1.0000 0.04392  0.72525  0.35831  Biso   1.000  N
  N3       1.0000 0.07367  0.81874  0.04840  Biso   1.000  N
  N4       1.0000 0.10263  0.60262  0.38065  Biso   1.000  N
  N5       1.0000 0.13238  0.69938  0.07006  Biso   1.000  N
  N6       1.0000 0.16139  0.48700  0.40130  Biso   1.000  N
  N7       1.0000 0.19112  0.59403  0.08867  Biso   1.000  N
  N8       1.0000 0.22031  0.39237  0.41764  Biso   1.000  N
  N9       1.0000 0.24998  0.51922  0.10117  Biso   1.000  N
  N10      1.0000 0.27939  0.33817  0.42642  Biso   1.000  N
  N11      1.0000 0.30896  0.49315  0.10509  Biso   1.000  N
  N12      1.0000 0.33856  0.34117  0.42593  Biso   1.000  N
  N13      1.0000 0.36791  0.52660  0.10034  Biso   1.000  N
  N14      1.0000 0.39763  0.40685  0.41632  Biso   1.000  N
  N15      1.0000 0.42672  0.61723  0.08686  Biso   1.000  N
  N16      1.0000 0.45645  0.52449  0.39828  Biso   1.000  N
  N17      1.0000 0.48534  0.74958  0.06611  Biso   1.000  N
  N18      1.0000 0.51505  0.67274  0.37470  Biso   1.000  N
  N19      1.0000 0.54383  0.90280  0.04150  Biso   1.000  N
  N20      1.0000 0.57357  0.82827  0.34927  Biso   1.000  N
  N21      1.0000 0.60238  0.05524  0.01628  Biso   1.000  N
  N22      1.0000 0.63214  0.96880  0.32582  Biso   1.000  N
  N23      1.0000 0.66114  0.18390  0.99458  Biso   1.000  N
  N24      1.0000 0.69090  0.07308  0.30779  Biso   1.000  N
  N25      1.0000 0.72014  0.26630  0.97955  Biso   1.000  N
  N26      1.0000 0.74985  0.12391  0.29746  Biso   1.000  N
  N27      1.0000 0.77930  0.28815  0.97335  Biso   1.000  N
  N28      1.0000 0.80884  0.11519  0.29598  Biso   1.000  N
  N29      1.0000 0.83843  0.25110  0.97639  Biso   1.000  N
  N30      1.0000 0.86773  0.05530  0.30293  Biso   1.000  N
  N31      1.0000 0.89741  0.16946  0.98753  Biso   1.000  N
  N32      1.0000 0.92652  0.96029  0.31726  Biso   1.000  N
  N33      1.0000 0.95622  0.06140  0.00517  Biso   1.000  N
  N34      1.0000 0.98523  0.84662  0.33671  Biso   1.000  N
