data_image0
_cell_length_a       28.4959
_cell_length_b       2.14766
_cell_length_c       2.47622
_cell_angle_alpha    65.9602
_cell_angle_beta     90.9741
_cell_angle_gamma    90.1981

_symmetry_space_group_name_H-M    "P 1"
_symmetry_int_tables_number       1

loop_
  _symmetry_equiv_pos_as_xyz
  'x, y, z'

loop_
  _atom_site_label
  _atom_site_occupancy
  _atom_site_fract_x
  _atom_site_fract_y
  _atom_site_fract_z
  _atom_site_thermal_displace_type
  _atom_site_B_iso_or_equiv
  _atom_site_type_symbol
  N1       1.0000 0.01356  0.75118  0.01530  Biso   1.000  N
  N2       1.0000 0.05080  0.58103  0.35822  Biso   1.000  N
  N3       1.0000 0.08606  0.73985  0.03618  Biso   1.000  N
  N4       1.0000 0.12337  0.56929  0.37533  Biso   1.000  N
  N5       1.0000 0.15096  0.12898  0.24765  Biso   1.000  N
  N6       1.0000 0.18794  0.95682  0.59536  Biso   1.000  N
  N7       1.0000 0.22373  0.11489  0.28316  Biso   1.000  N
  N8       1.0000 0.25931  0.94184  0.61736  Biso   1.000  N
  N9       1.0000 0.29500  0.10550  0.29696  Biso   1.000  N
  N10      1.0000 0.33058  0.93654  0.62719  Biso   1.000  N
  N11      1.0000 0.36780  0.10424  0.29313  Biso   1.000  N
  N12      1.0000 0.39511  0.53491  0.44781  Biso   1.000  N
  N13      1.0000 0.43275  0.71102  0.09520  Biso   1.000  N
  N14      1.0000 0.46032  0.14173  0.24997  Biso   1.000  N
  N15      1.0000 0.49730  0.30450  0.92448  Biso   1.000  N
  N16      1.0000 0.53310  0.12008  0.26610  Biso   1.000  N
  N17      1.0000 0.56837  0.26716  0.95766  Biso   1.000  N
  N18      1.0000 0.60432  0.08553  0.29453  Biso   1.000  N
  N19      1.0000 0.64106  0.24699  0.96833  Biso   1.000  N
  N20      1.0000 0.66891  0.68219  0.11107  Biso   1.000  N
  N21      1.0000 0.70607  0.84946  0.78185  Biso   1.000  N
  N22      1.0000 0.74138  0.68169  0.11163  Biso   1.000  N
  N23      1.0000 0.77714  0.84466  0.79744  Biso   1.000  N
  N24      1.0000 0.81387  0.67162  0.14375  Biso   1.000  N
  N25      1.0000 0.84178  0.23253  0.01062  Biso   1.000  N
  N26      1.0000 0.87877  0.06173  0.35369  Biso   1.000  N
  N27      1.0000 0.91412  0.23005  0.03502  Biso   1.000  N
  N28      1.0000 0.94982  0.07086  0.35768  Biso   1.000  N
  N29      1.0000 0.98670  0.24563  0.02232  Biso   1.000  N
