data_image0
_cell_length_a       32.8501
_cell_length_b       2.17035
_cell_length_c       2.45742
_cell_angle_alpha    65.4147
_cell_angle_beta     90.2595
_cell_angle_gamma    91.5308

_symmetry_space_group_name_H-M    "P 1"
_symmetry_int_tables_number       1

loop_
  _symmetry_equiv_pos_as_xyz
  'x, y, z'

loop_
  _atom_site_label
  _atom_site_occupancy
  _atom_site_fract_x
  _atom_site_fract_y
  _atom_site_fract_z
  _atom_site_thermal_displace_type
  _atom_site_B_iso_or_equiv
  _atom_site_type_symbol
  N1       1.0000 0.01285  0.81159  0.82056  Biso   1.000  N
  N2       1.0000 0.04465  0.65331  0.15102  Biso   1.000  N
  N3       1.0000 0.07605  0.82402  0.82695  Biso   1.000  N
  N4       1.0000 0.10761  0.67408  0.15913  Biso   1.000  N
  N5       1.0000 0.13233  0.24998  0.02924  Biso   1.000  N
  N6       1.0000 0.16379  0.09589  0.36265  Biso   1.000  N
  N7       1.0000 0.19502  0.26308  0.03970  Biso   1.000  N
  N8       1.0000 0.22559  0.09177  0.36250  Biso   1.000  N
  N9       1.0000 0.25663  0.26080  0.03803  Biso   1.000  N
  N10      1.0000 0.28828  0.10222  0.37263  Biso   1.000  N
  N11      1.0000 0.31261  0.67284  0.24000  Biso   1.000  N
  N12      1.0000 0.34444  0.52099  0.57453  Biso   1.000  N
  N13      1.0000 0.37536  0.71243  0.24807  Biso   1.000  N
  N14      1.0000 0.40625  0.58233  0.56918  Biso   1.000  N
  N15      1.0000 0.43693  0.78995  0.23618  Biso   1.000  N
  N16      1.0000 0.46833  0.69958  0.54387  Biso   1.000  N
  N17      1.0000 0.49835  0.92659  0.20104  Biso   1.000  N
  N18      1.0000 0.53008  0.89890  0.48589  Biso   1.000  N
  N19      1.0000 0.55973  0.13872  0.13460  Biso   1.000  N
  N20      1.0000 0.59138  0.12889  0.41511  Biso   1.000  N
  N21      1.0000 0.62121  0.36888  0.07101  Biso   1.000  N
  N22      1.0000 0.65268  0.30451  0.37497  Biso   1.000  N
  N23      1.0000 0.68319  0.52958  0.04443  Biso   1.000  N
  N24      1.0000 0.71412  0.41571  0.36755  Biso   1.000  N
  N25      1.0000 0.74513  0.61913  0.04493  Biso   1.000  N
  N26      1.0000 0.77597  0.47375  0.37278  Biso   1.000  N
  N27      1.0000 0.80687  0.65755  0.04642  Biso   1.000  N
  N28      1.0000 0.83790  0.50453  0.36653  Biso   1.000  N
  N29      1.0000 0.86973  0.68052  0.02836  Biso   1.000  N
  N30      1.0000 0.89427  0.12470  0.15981  Biso   1.000  N
  N31      1.0000 0.92612  0.29329  0.82487  Biso   1.000  N
  N32      1.0000 0.95725  0.13542  0.14865  Biso   1.000  N
  N33      1.0000 0.98928  0.30700  0.81384  Biso   1.000  N
