data_image0
_cell_length_a       38.2389
_cell_length_b       2.18769
_cell_length_c       2.44021
_cell_angle_alpha    63.3607
_cell_angle_beta     86.2271
_cell_angle_gamma    81.4857

_symmetry_space_group_name_H-M    "P 1"
_symmetry_int_tables_number       1

loop_
  _symmetry_equiv_pos_as_xyz
  'x, y, z'

loop_
  _atom_site_label
  _atom_site_occupancy
  _atom_site_fract_x
  _atom_site_fract_y
  _atom_site_fract_z
  _atom_site_thermal_displace_type
  _atom_site_B_iso_or_equiv
  _atom_site_type_symbol
  N1       1.0000 0.01005  0.82453  0.02823  Biso   1.000  N
  N2       1.0000 0.03814  0.57818  0.36275  Biso   1.000  N
  N3       1.0000 0.06540  0.64965  0.04002  Biso   1.000  N
  N4       1.0000 0.09237  0.39017  0.36321  Biso   1.000  N
  N5       1.0000 0.11967  0.45234  0.04321  Biso   1.000  N
  N6       1.0000 0.14684  0.19414  0.36641  Biso   1.000  N
  N7       1.0000 0.17409  0.25825  0.04770  Biso   1.000  N
  N8       1.0000 0.20118  0.99914  0.37375  Biso   1.000  N
  N9       1.0000 0.22841  0.06207  0.05695  Biso   1.000  N
  N10      1.0000 0.25561  0.80379  0.38216  Biso   1.000  N
  N11      1.0000 0.28285  0.86760  0.06350  Biso   1.000  N
  N12      1.0000 0.30996  0.60916  0.38644  Biso   1.000  N
  N13      1.0000 0.33717  0.67504  0.06474  Biso   1.000  N
  N14      1.0000 0.36441  0.42092  0.38544  Biso   1.000  N
  N15      1.0000 0.39154  0.49345  0.06266  Biso   1.000  N
  N16      1.0000 0.41884  0.24980  0.38302  Biso   1.000  N
  N17      1.0000 0.44593  0.33684  0.05998  Biso   1.000  N
  N18      1.0000 0.47331  0.11355  0.37972  Biso   1.000  N
  N19      1.0000 0.50035  0.22473  0.05480  Biso   1.000  N
  N20      1.0000 0.52766  0.02840  0.37143  Biso   1.000  N
  N21      1.0000 0.55467  0.16082  0.04496  Biso   1.000  N
  N22      1.0000 0.58191  0.98484  0.36056  Biso   1.000  N
  N23      1.0000 0.60879  0.13391  0.03452  Biso   1.000  N
  N24      1.0000 0.63595  0.97060  0.35067  Biso   1.000  N
  N25      1.0000 0.66287  0.12281  0.02715  Biso   1.000  N
  N26      1.0000 0.69001  0.95513  0.34639  Biso   1.000  N
  N27      1.0000 0.71694  0.10294  0.02376  Biso   1.000  N
  N28      1.0000 0.74410  0.92325  0.34226  Biso   1.000  N
  N29      1.0000 0.77127  0.04878  0.01790  Biso   1.000  N
  N30      1.0000 0.79846  0.84065  0.33667  Biso   1.000  N
  N31      1.0000 0.82565  0.93895  0.01295  Biso   1.000  N
  N32      1.0000 0.85281  0.69908  0.33569  Biso   1.000  N
  N33      1.0000 0.88012  0.76614  0.01699  Biso   1.000  N
  N34      1.0000 0.90723  0.50290  0.34310  Biso   1.000  N
  N35      1.0000 0.93436  0.55428  0.02640  Biso   1.000  N
  N36      1.0000 0.96143  0.29580  0.35466  Biso   1.000  N
  N37      1.0000 0.98966  0.37986  0.02422  Biso   1.000  N
