data_image0
_cell_length_a       35.716
_cell_length_b       2.1981
_cell_length_c       2.4409
_cell_angle_alpha    63.2289
_cell_angle_beta     88.6206
_cell_angle_gamma    87.0423

_symmetry_space_group_name_H-M    "P 1"
_symmetry_int_tables_number       1

loop_
  _symmetry_equiv_pos_as_xyz
  'x, y, z'

loop_
  _atom_site_label
  _atom_site_occupancy
  _atom_site_fract_x
  _atom_site_fract_y
  _atom_site_fract_z
  _atom_site_thermal_displace_type
  _atom_site_B_iso_or_equiv
  _atom_site_type_symbol
  N1       1.0000 0.01065  0.88136  0.08352  Biso   1.000  N
  N2       1.0000 0.04047  0.69290  0.41654  Biso   1.000  N
  N3       1.0000 0.06921  0.84681  0.09071  Biso   1.000  N
  N4       1.0000 0.09796  0.69499  0.40911  Biso   1.000  N
  N5       1.0000 0.12664  0.86157  0.08413  Biso   1.000  N
  N6       1.0000 0.15568  0.71781  0.40075  Biso   1.000  N
  N7       1.0000 0.18415  0.89335  0.07548  Biso   1.000  N
  N8       1.0000 0.21313  0.76107  0.39248  Biso   1.000  N
  N9       1.0000 0.24150  0.94644  0.06604  Biso   1.000  N
  N10      1.0000 0.27058  0.82344  0.37960  Biso   1.000  N
  N11      1.0000 0.29886  0.01826  0.05046  Biso   1.000  N
  N12      1.0000 0.32781  0.90300  0.36103  Biso   1.000  N
  N13      1.0000 0.35619  0.09728  0.03022  Biso   1.000  N
  N14      1.0000 0.38514  0.98051  0.34202  Biso   1.000  N
  N15      1.0000 0.41347  0.17582  0.01447  Biso   1.000  N
  N16      1.0000 0.44241  0.05114  0.32993  Biso   1.000  N
  N17      1.0000 0.47093  0.23812  0.00491  Biso   1.000  N
  N18      1.0000 0.49978  0.10268  0.32244  Biso   1.000  N
  N19      1.0000 0.52841  0.27987  0.99745  Biso   1.000  N
  N20      1.0000 0.55727  0.12805  0.31557  Biso   1.000  N
  N21      1.0000 0.58611  0.28715  0.99255  Biso   1.000  N
  N22      1.0000 0.61486  0.11271  0.31399  Biso   1.000  N
  N23      1.0000 0.64377  0.24772  0.99405  Biso   1.000  N
  N24      1.0000 0.67248  0.04679  0.31970  Biso   1.000  N
  N25      1.0000 0.70147  0.15075  0.00367  Biso   1.000  N
  N26      1.0000 0.72988  0.92694  0.33101  Biso   1.000  N
  N27      1.0000 0.75898  0.00759  0.01657  Biso   1.000  N
  N28      1.0000 0.78724  0.77112  0.34422  Biso   1.000  N
  N29      1.0000 0.81626  0.83551  0.03113  Biso   1.000  N
  N30      1.0000 0.84438  0.59466  0.36123  Biso   1.000  N
  N31      1.0000 0.87355  0.65651  0.05224  Biso   1.000  N
  N32      1.0000 0.90178  0.41924  0.38530  Biso   1.000  N
  N33      1.0000 0.93070  0.48830  0.07602  Biso   1.000  N
  N34      1.0000 0.95913  0.27132  0.40773  Biso   1.000  N
  N35      1.0000 0.98916  0.40171  0.07872  Biso   1.000  N
