data_image0
_cell_length_a       35.7571
_cell_length_b       2.15852
_cell_length_c       2.46781
_cell_angle_alpha    65.5708
_cell_angle_beta     85.4626
_cell_angle_gamma    90.0024

_symmetry_space_group_name_H-M    "P 1"
_symmetry_int_tables_number       1

loop_
  _symmetry_equiv_pos_as_xyz
  'x, y, z'

loop_
  _atom_site_label
  _atom_site_occupancy
  _atom_site_fract_x
  _atom_site_fract_y
  _atom_site_fract_z
  _atom_site_thermal_displace_type
  _atom_site_B_iso_or_equiv
  _atom_site_type_symbol
  N1       1.0000 0.01069  0.69013  0.10775  Biso   1.000  N
  N2       1.0000 0.04015  0.55332  0.39554  Biso   1.000  N
  N3       1.0000 0.06887  0.73610  0.03065  Biso   1.000  N
  N4       1.0000 0.09826  0.59653  0.31971  Biso   1.000  N
  N5       1.0000 0.12098  0.17829  0.15530  Biso   1.000  N
  N6       1.0000 0.15003  0.03355  0.45018  Biso   1.000  N
  N7       1.0000 0.17900  0.21988  0.08855  Biso   1.000  N
  N8       1.0000 0.20700  0.06887  0.37713  Biso   1.000  N
  N9       1.0000 0.23586  0.25464  0.01792  Biso   1.000  N
  N10      1.0000 0.26493  0.10187  0.31972  Biso   1.000  N
  N11      1.0000 0.28739  0.67362  0.16598  Biso   1.000  N
  N12      1.0000 0.31638  0.51948  0.47290  Biso   1.000  N
  N13      1.0000 0.34558  0.69649  0.12238  Biso   1.000  N
  N14      1.0000 0.37336  0.54216  0.41907  Biso   1.000  N
  N15      1.0000 0.40258  0.72506  0.06054  Biso   1.000  N
  N16      1.0000 0.43054  0.57555  0.35132  Biso   1.000  N
  N17      1.0000 0.45978  0.75776  0.99444  Biso   1.000  N
  N18      1.0000 0.48753  0.60445  0.29288  Biso   1.000  N
  N19      1.0000 0.51678  0.78245  0.94416  Biso   1.000  N
  N20      1.0000 0.54564  0.62539  0.25395  Biso   1.000  N
  N21      1.0000 0.56824  0.19762  0.09769  Biso   1.000  N
  N22      1.0000 0.59725  0.04243  0.40280  Biso   1.000  N
  N23      1.0000 0.62625  0.22504  0.04965  Biso   1.000  N
  N24      1.0000 0.65426  0.07583  0.33890  Biso   1.000  N
  N25      1.0000 0.68325  0.26876  0.97195  Biso   1.000  N
  N26      1.0000 0.71137  0.12216  0.25649  Biso   1.000  N
  N27      1.0000 0.74007  0.30993  0.89284  Biso   1.000  N
  N28      1.0000 0.76952  0.15663  0.19082  Biso   1.000  N
  N29      1.0000 0.79168  0.73591  0.01379  Biso   1.000  N
  N30      1.0000 0.82150  0.57371  0.33502  Biso   1.000  N
  N31      1.0000 0.84367  0.15333  0.15801  Biso   1.000  N
  N32      1.0000 0.87316  0.00323  0.45101  Biso   1.000  N
  N33      1.0000 0.90169  0.19568  0.08091  Biso   1.000  N
  N34      1.0000 0.93002  0.05348  0.35793  Biso   1.000  N
  N35      1.0000 0.95868  0.24459  0.98814  Biso   1.000  N
  N36      1.0000 0.98806  0.10609  0.27400  Biso   1.000  N
