data_image0
_cell_length_a       26.5364
_cell_length_b       2.14393
_cell_length_c       2.46911
_cell_angle_alpha    65.8787
_cell_angle_beta     90.956
_cell_angle_gamma    89.8937

_symmetry_space_group_name_H-M    "P 1"
_symmetry_int_tables_number       1

loop_
  _symmetry_equiv_pos_as_xyz
  'x, y, z'

loop_
  _atom_site_label
  _atom_site_occupancy
  _atom_site_fract_x
  _atom_site_fract_y
  _atom_site_fract_z
  _atom_site_thermal_displace_type
  _atom_site_B_iso_or_equiv
  _atom_site_type_symbol
  N1       1.0000 0.01584  0.75760  0.96681  Biso   1.000  N
  N2       1.0000 0.05607  0.59335  0.30237  Biso   1.000  N
  N3       1.0000 0.09591  0.73889  0.98484  Biso   1.000  N
  N4       1.0000 0.12570  0.17131  0.11817  Biso   1.000  N
  N5       1.0000 0.16534  0.32214  0.79429  Biso   1.000  N
  N6       1.0000 0.20547  0.17086  0.12533  Biso   1.000  N
  N7       1.0000 0.23534  0.73182  0.00053  Biso   1.000  N
  N8       1.0000 0.27497  0.56692  0.34373  Biso   1.000  N
  N9       1.0000 0.31334  0.73486  0.02823  Biso   1.000  N
  N10      1.0000 0.35134  0.57213  0.36274  Biso   1.000  N
  N11      1.0000 0.38990  0.73946  0.05066  Biso   1.000  N
  N12      1.0000 0.42923  0.56773  0.39775  Biso   1.000  N
  N13      1.0000 0.45928  0.12787  0.26690  Biso   1.000  N
  N14      1.0000 0.49915  0.95654  0.61103  Biso   1.000  N
  N15      1.0000 0.53728  0.11773  0.29388  Biso   1.000  N
  N16      1.0000 0.57562  0.94923  0.62449  Biso   1.000  N
  N17      1.0000 0.61531  0.11290  0.29449  Biso   1.000  N
  N18      1.0000 0.64539  0.54550  0.43835  Biso   1.000  N
  N19      1.0000 0.68489  0.70768  0.10806  Biso   1.000  N
  N20      1.0000 0.72325  0.54076  0.43994  Biso   1.000  N
  N21      1.0000 0.76284  0.70049  0.11068  Biso   1.000  N
  N22      1.0000 0.79281  0.13501  0.24876  Biso   1.000  N
  N23      1.0000 0.83234  0.29399  0.92290  Biso   1.000  N
  N24      1.0000 0.87067  0.12047  0.25455  Biso   1.000  N
  N25      1.0000 0.90890  0.27526  0.94211  Biso   1.000  N
  N26      1.0000 0.94693  0.10210  0.28048  Biso   1.000  N
  N27      1.0000 0.98691  0.25989  0.96292  Biso   1.000  N
