data_image0
_cell_length_a       18.4737
_cell_length_b       2.15205
_cell_length_c       2.50169
_cell_angle_alpha    65.4786
_cell_angle_beta     91.4353
_cell_angle_gamma    86.5254

_symmetry_space_group_name_H-M    "P 1"
_symmetry_int_tables_number       1

loop_
  _symmetry_equiv_pos_as_xyz
  'x, y, z'

loop_
  _atom_site_label
  _atom_site_occupancy
  _atom_site_fract_x
  _atom_site_fract_y
  _atom_site_fract_z
  _atom_site_thermal_displace_type
  _atom_site_B_iso_or_equiv
  _atom_site_type_symbol
  N1       1.0000 0.02174  0.81507  0.87391  Biso   1.000  N
  N2       1.0000 0.08047  0.58348  0.27336  Biso   1.000  N
  N3       1.0000 0.12257  0.12008  0.14597  Biso   1.000  N
  N4       1.0000 0.17997  0.90536  0.51731  Biso   1.000  N
  N5       1.0000 0.23535  0.02917  0.22396  Biso   1.000  N
  N6       1.0000 0.29041  0.82265  0.57496  Biso   1.000  N
  N7       1.0000 0.34543  0.95178  0.27176  Biso   1.000  N
  N8       1.0000 0.40099  0.74762  0.61257  Biso   1.000  N
  N9       1.0000 0.45796  0.88270  0.29115  Biso   1.000  N
  N10      1.0000 0.50061  0.28215  0.46014  Biso   1.000  N
  N11      1.0000 0.55856  0.42666  0.11506  Biso   1.000  N
  N12      1.0000 0.60055  0.82194  0.29324  Biso   1.000  N
  N13      1.0000 0.65859  0.96551  0.94996  Biso   1.000  N
  N14      1.0000 0.70143  0.36662  0.11702  Biso   1.000  N
  N15      1.0000 0.75808  0.49619  0.80574  Biso   1.000  N
  N16      1.0000 0.81413  0.28188  0.15816  Biso   1.000  N
  N17      1.0000 0.86815  0.40229  0.86417  Biso   1.000  N
  N18      1.0000 0.92403  0.19212  0.21591  Biso   1.000  N
  N19      1.0000 0.98099  0.31923  0.91065  Biso   1.000  N
