data_image0
_cell_length_a       32.6671
_cell_length_b       2.14986
_cell_length_c       2.46106
_cell_angle_alpha    65.9677
_cell_angle_beta     92.46
_cell_angle_gamma    89.9536

_symmetry_space_group_name_H-M    "P 1"
_symmetry_int_tables_number       1

loop_
  _symmetry_equiv_pos_as_xyz
  'x, y, z'

loop_
  _atom_site_label
  _atom_site_occupancy
  _atom_site_fract_x
  _atom_site_fract_y
  _atom_site_fract_z
  _atom_site_thermal_displace_type
  _atom_site_B_iso_or_equiv
  _atom_site_type_symbol
  N1       1.0000 0.01216  0.79629  0.89465  Biso   1.000  N
  N2       1.0000 0.04456  0.62210  0.24557  Biso   1.000  N
  N3       1.0000 0.07594  0.77662  0.94119  Biso   1.000  N
  N4       1.0000 0.10788  0.60245  0.29621  Biso   1.000  N
  N5       1.0000 0.13257  0.15754  0.17513  Biso   1.000  N
  N6       1.0000 0.16487  0.98117  0.53060  Biso   1.000  N
  N7       1.0000 0.19587  0.14003  0.22473  Biso   1.000  N
  N8       1.0000 0.22721  0.96929  0.56503  Biso   1.000  N
  N9       1.0000 0.25914  0.13212  0.24264  Biso   1.000  N
  N10      1.0000 0.28376  0.56353  0.39173  Biso   1.000  N
  N11      1.0000 0.31553  0.72422  0.07387  Biso   1.000  N
  N12      1.0000 0.34712  0.54958  0.41458  Biso   1.000  N
  N13      1.0000 0.37793  0.70546  0.11324  Biso   1.000  N
  N14      1.0000 0.40922  0.51837  0.46708  Biso   1.000  N
  N15      1.0000 0.44021  0.67081  0.16923  Biso   1.000  N
  N16      1.0000 0.47163  0.49350  0.51355  Biso   1.000  N
  N17      1.0000 0.50360  0.64773  0.20146  Biso   1.000  N
  N18      1.0000 0.52826  0.07613  0.35276  Biso   1.000  N
  N19      1.0000 0.56022  0.23114  0.03713  Biso   1.000  N
  N20      1.0000 0.59154  0.05911  0.37964  Biso   1.000  N
  N21      1.0000 0.62357  0.21546  0.06433  Biso   1.000  N
  N22      1.0000 0.64812  0.64582  0.21548  Biso   1.000  N
  N23      1.0000 0.68021  0.80084  0.90536  Biso   1.000  N
  N24      1.0000 0.71144  0.62507  0.25057  Biso   1.000  N
  N25      1.0000 0.74257  0.77721  0.95483  Biso   1.000  N
  N26      1.0000 0.77361  0.59233  0.30901  Biso   1.000  N
  N27      1.0000 0.80473  0.74378  0.01140  Biso   1.000  N
  N28      1.0000 0.83618  0.56901  0.35200  Biso   1.000  N
  N29      1.0000 0.86804  0.72383  0.03782  Biso   1.000  N
  N30      1.0000 0.89296  0.15456  0.18380  Biso   1.000  N
  N31      1.0000 0.92462  0.30933  0.86553  Biso   1.000  N
  N32      1.0000 0.95633  0.13995  0.20376  Biso   1.000  N
  N33      1.0000 0.98837  0.29810  0.89108  Biso   1.000  N
