data_image0
_cell_length_a       34.9308
_cell_length_b       2.20015
_cell_length_c       2.43858
_cell_angle_alpha    63.1758
_cell_angle_beta     88.2338
_cell_angle_gamma    86.1624

_symmetry_space_group_name_H-M    "P 1"
_symmetry_int_tables_number       1

loop_
  _symmetry_equiv_pos_as_xyz
  'x, y, z'

loop_
  _atom_site_label
  _atom_site_occupancy
  _atom_site_fract_x
  _atom_site_fract_y
  _atom_site_fract_z
  _atom_site_thermal_displace_type
  _atom_site_B_iso_or_equiv
  _atom_site_type_symbol
  N1       1.0000 0.01411  0.03804  0.06917  Biso   1.000  N
  N2       1.0000 0.04353  0.81089  0.39123  Biso   1.000  N
  N3       1.0000 0.07300  0.92203  0.06814  Biso   1.000  N
  N4       1.0000 0.10260  0.72842  0.38776  Biso   1.000  N
  N5       1.0000 0.13198  0.87297  0.06217  Biso   1.000  N
  N6       1.0000 0.16163  0.71027  0.37894  Biso   1.000  N
  N7       1.0000 0.19089  0.87614  0.05187  Biso   1.000  N
  N8       1.0000 0.22054  0.72780  0.36690  Biso   1.000  N
  N9       1.0000 0.24975  0.89711  0.03914  Biso   1.000  N
  N10      1.0000 0.27943  0.74268  0.35434  Biso   1.000  N
  N11      1.0000 0.30872  0.89861  0.02701  Biso   1.000  N
  N12      1.0000 0.33840  0.72111  0.34412  Biso   1.000  N
  N13      1.0000 0.36779  0.85133  0.01844  Biso   1.000  N
  N14      1.0000 0.39738  0.64465  0.33781  Biso   1.000  N
  N15      1.0000 0.42682  0.74816  0.01437  Biso   1.000  N
  N16      1.0000 0.45628  0.51941  0.33544  Biso   1.000  N
  N17      1.0000 0.48571  0.60558  0.01409  Biso   1.000  N
  N18      1.0000 0.51507  0.36708  0.33644  Biso   1.000  N
  N19      1.0000 0.54453  0.44732  0.01624  Biso   1.000  N
  N20      1.0000 0.57386  0.20789  0.33918  Biso   1.000  N
  N21      1.0000 0.60335  0.28793  0.01957  Biso   1.000  N
  N22      1.0000 0.63265  0.04916  0.34322  Biso   1.000  N
  N23      1.0000 0.66217  0.12839  0.02445  Biso   1.000  N
  N24      1.0000 0.69143  0.88766  0.34902  Biso   1.000  N
  N25      1.0000 0.72096  0.96304  0.03111  Biso   1.000  N
  N26      1.0000 0.75016  0.71787  0.35648  Biso   1.000  N
  N27      1.0000 0.77969  0.78694  0.03949  Biso   1.000  N
  N28      1.0000 0.80883  0.53644  0.36527  Biso   1.000  N
  N29      1.0000 0.83833  0.59874  0.04878  Biso   1.000  N
  N30      1.0000 0.86744  0.34364  0.37440  Biso   1.000  N
  N31      1.0000 0.89689  0.40187  0.05784  Biso   1.000  N
  N32      1.0000 0.92600  0.14524  0.38297  Biso   1.000  N
  N33      1.0000 0.95543  0.20737  0.06536  Biso   1.000  N
  N34      1.0000 0.98465  0.95822  0.38926  Biso   1.000  N
