data_image0
_cell_length_a       29.7998
_cell_length_b       2.1546
_cell_length_c       2.47184
_cell_angle_alpha    65.5288
_cell_angle_beta     86.5747
_cell_angle_gamma    91.793

_symmetry_space_group_name_H-M    "P 1"
_symmetry_int_tables_number       1

loop_
  _symmetry_equiv_pos_as_xyz
  'x, y, z'

loop_
  _atom_site_label
  _atom_site_occupancy
  _atom_site_fract_x
  _atom_site_fract_y
  _atom_site_fract_z
  _atom_site_thermal_displace_type
  _atom_site_B_iso_or_equiv
  _atom_site_type_symbol
  N1       1.0000 0.01399  0.60038  0.07951  Biso   1.000  N
  N2       1.0000 0.04913  0.46469  0.37883  Biso   1.000  N
  N3       1.0000 0.08361  0.65569  0.02069  Biso   1.000  N
  N4       1.0000 0.11875  0.51919  0.32074  Biso   1.000  N
  N5       1.0000 0.14584  0.10314  0.16352  Biso   1.000  N
  N6       1.0000 0.18083  0.96266  0.46192  Biso   1.000  N
  N7       1.0000 0.21564  0.15378  0.09835  Biso   1.000  N
  N8       1.0000 0.24927  0.00603  0.38451  Biso   1.000  N
  N9       1.0000 0.28389  0.19708  0.02090  Biso   1.000  N
  N10      1.0000 0.31909  0.05889  0.31948  Biso   1.000  N
  N11      1.0000 0.34589  0.64402  0.16133  Biso   1.000  N
  N12      1.0000 0.38119  0.51066  0.46193  Biso   1.000  N
  N13      1.0000 0.41567  0.71395  0.10604  Biso   1.000  N
  N14      1.0000 0.44951  0.58935  0.39751  Biso   1.000  N
  N15      1.0000 0.48406  0.80154  0.03471  Biso   1.000  N
  N16      1.0000 0.51813  0.68046  0.31820  Biso   1.000  N
  N17      1.0000 0.55270  0.88922  0.95435  Biso   1.000  N
  N18      1.0000 0.58647  0.75985  0.24509  Biso   1.000  N
  N19      1.0000 0.62097  0.96005  0.88700  Biso   1.000  N
  N20      1.0000 0.65634  0.82098  0.19065  Biso   1.000  N
  N21      1.0000 0.68274  0.41064  0.01736  Biso   1.000  N
  N22      1.0000 0.71857  0.26223  0.34291  Biso   1.000  N
  N23      1.0000 0.74504  0.85282  0.16750  Biso   1.000  N
  N24      1.0000 0.78051  0.72108  0.46574  Biso   1.000  N
  N25      1.0000 0.81477  0.93681  0.10278  Biso   1.000  N
  N26      1.0000 0.84876  0.82884  0.38638  Biso   1.000  N
  N27      1.0000 0.88312  0.05257  0.01804  Biso   1.000  N
  N28      1.0000 0.91710  0.93783  0.30299  Biso   1.000  N
  N29      1.0000 0.95170  0.14413  0.94628  Biso   1.000  N
  N30      1.0000 0.98676  0.01145  0.24472  Biso   1.000  N
