data_image0
_cell_length_a       30.5776
_cell_length_b       2.15382
_cell_length_c       2.46503
_cell_angle_alpha    65.7521
_cell_angle_beta     88.7756
_cell_angle_gamma    89.933

_symmetry_space_group_name_H-M    "P 1"
_symmetry_int_tables_number       1

loop_
  _symmetry_equiv_pos_as_xyz
  'x, y, z'

loop_
  _atom_site_label
  _atom_site_occupancy
  _atom_site_fract_x
  _atom_site_fract_y
  _atom_site_fract_z
  _atom_site_thermal_displace_type
  _atom_site_B_iso_or_equiv
  _atom_site_type_symbol
  N1       1.0000 0.01129  0.73239  0.05326  Biso   1.000  N
  N2       1.0000 0.04535  0.56295  0.38188  Biso   1.000  N
  N3       1.0000 0.07891  0.72038  0.05750  Biso   1.000  N
  N4       1.0000 0.11157  0.54477  0.38380  Biso   1.000  N
  N5       1.0000 0.14531  0.70238  0.06371  Biso   1.000  N
  N6       1.0000 0.17820  0.53348  0.38918  Biso   1.000  N
  N7       1.0000 0.21154  0.70289  0.06166  Biso   1.000  N
  N8       1.0000 0.24463  0.54303  0.37599  Biso   1.000  N
  N9       1.0000 0.27900  0.71772  0.03018  Biso   1.000  N
  N10      1.0000 0.30497  0.16006  0.15756  Biso   1.000  N
  N11      1.0000 0.33921  0.33825  0.80673  Biso   1.000  N
  N12      1.0000 0.37243  0.17967  0.11772  Biso   1.000  N
  N13      1.0000 0.40562  0.35136  0.78631  Biso   1.000  N
  N14      1.0000 0.43986  0.18665  0.11408  Biso   1.000  N
  N15      1.0000 0.46609  0.75357  0.97090  Biso   1.000  N
  N16      1.0000 0.50022  0.59385  0.29199  Biso   1.000  N
  N17      1.0000 0.53405  0.76285  0.96147  Biso   1.000  N
  N18      1.0000 0.56776  0.60666  0.28531  Biso   1.000  N
  N19      1.0000 0.59469  0.18039  0.14164  Biso   1.000  N
  N20      1.0000 0.62860  0.02578  0.46127  Biso   1.000  N
  N21      1.0000 0.66237  0.19298  0.13065  Biso   1.000  N
  N22      1.0000 0.69657  0.03926  0.45134  Biso   1.000  N
  N23      1.0000 0.72265  0.60817  0.31539  Biso   1.000  N
  N24      1.0000 0.75707  0.45967  0.63485  Biso   1.000  N
  N25      1.0000 0.79173  0.61612  0.29966  Biso   1.000  N
  N26      1.0000 0.81774  0.05608  0.42078  Biso   1.000  N
  N27      1.0000 0.85172  0.22540  0.07300  Biso   1.000  N
  N28      1.0000 0.88520  0.06716  0.38415  Biso   1.000  N
  N29      1.0000 0.91826  0.23599  0.05529  Biso   1.000  N
  N30      1.0000 0.95134  0.07357  0.37608  Biso   1.000  N
  N31      1.0000 0.98604  0.23901  0.04167  Biso   1.000  N
