data_image0
_cell_length_a       21.3939
_cell_length_b       2.14941
_cell_length_c       2.49265
_cell_angle_alpha    65.4391
_cell_angle_beta     87.7509
_cell_angle_gamma    90.2411

_symmetry_space_group_name_H-M    "P 1"
_symmetry_int_tables_number       1

loop_
  _symmetry_equiv_pos_as_xyz
  'x, y, z'

loop_
  _atom_site_label
  _atom_site_occupancy
  _atom_site_fract_x
  _atom_site_fract_y
  _atom_site_fract_z
  _atom_site_thermal_displace_type
  _atom_site_B_iso_or_equiv
  _atom_site_type_symbol
  N1       1.0000 0.01647  0.66599  0.16493  Biso   1.000  N
  N2       1.0000 0.06658  0.49387  0.51286  Biso   1.000  N
  N3       1.0000 0.10336  0.07317  0.34678  Biso   1.000  N
  N4       1.0000 0.15239  0.91254  0.67060  Biso   1.000  N
  N5       1.0000 0.20024  0.08891  0.33301  Biso   1.000  N
  N6       1.0000 0.24753  0.93310  0.64140  Biso   1.000  N
  N7       1.0000 0.29494  0.11104  0.29579  Biso   1.000  N
  N8       1.0000 0.34297  0.95927  0.59090  Biso   1.000  N
  N9       1.0000 0.39176  0.13912  0.22962  Biso   1.000  N
  N10      1.0000 0.42918  0.58393  0.34574  Biso   1.000  N
  N11      1.0000 0.47803  0.75987  0.98682  Biso   1.000  N
  N12      1.0000 0.52606  0.60645  0.28387  Biso   1.000  N
  N13      1.0000 0.57470  0.78245  0.92127  Biso   1.000  N
  N14      1.0000 0.61190  0.22747  0.03324  Biso   1.000  N
  N15      1.0000 0.66131  0.39658  0.68509  Biso   1.000  N
  N16      1.0000 0.71060  0.24768  0.99412  Biso   1.000  N
  N17      1.0000 0.74776  0.81506  0.85408  Biso   1.000  N
  N18      1.0000 0.79637  0.65918  0.17702  Biso   1.000  N
  N19      1.0000 0.84429  0.83358  0.83799  Biso   1.000  N
  N20      1.0000 0.89312  0.67462  0.16052  Biso   1.000  N
  N21      1.0000 0.93027  0.25386  0.99354  Biso   1.000  N
  N22      1.0000 0.98016  0.08230  0.34081  Biso   1.000  N
