data_image0
_cell_length_a       34.6054
_cell_length_b       2.14937
_cell_length_c       2.47578
_cell_angle_alpha    65.5364
_cell_angle_beta     89.4088
_cell_angle_gamma    89.9682

_symmetry_space_group_name_H-M    "P 1"
_symmetry_int_tables_number       1

loop_
  _symmetry_equiv_pos_as_xyz
  'x, y, z'

loop_
  _atom_site_label
  _atom_site_occupancy
  _atom_site_fract_x
  _atom_site_fract_y
  _atom_site_fract_z
  _atom_site_thermal_displace_type
  _atom_site_B_iso_or_equiv
  _atom_site_type_symbol
  N1       1.0000 0.01124  0.71996  0.04565  Biso   1.000  N
  N2       1.0000 0.04185  0.55813  0.37304  Biso   1.000  N
  N3       1.0000 0.07261  0.70939  0.04607  Biso   1.000  N
  N4       1.0000 0.09533  0.14665  0.17521  Biso   1.000  N
  N5       1.0000 0.12578  0.31459  0.83428  Biso   1.000  N
  N6       1.0000 0.15518  0.15402  0.14969  Biso   1.000  N
  N7       1.0000 0.18456  0.32173  0.81972  Biso   1.000  N
  N8       1.0000 0.21380  0.15459  0.14421  Biso   1.000  N
  N9       1.0000 0.24325  0.31931  0.82056  Biso   1.000  N
  N10      1.0000 0.27362  0.15120  0.15477  Biso   1.000  N
  N11      1.0000 0.29643  0.71374  0.01857  Biso   1.000  N
  N12      1.0000 0.32685  0.54925  0.34814  Biso   1.000  N
  N13      1.0000 0.35621  0.72231  0.01917  Biso   1.000  N
  N14      1.0000 0.38556  0.56824  0.33218  Biso   1.000  N
  N15      1.0000 0.41475  0.75053  0.99115  Biso   1.000  N
  N16      1.0000 0.44451  0.60390  0.29234  Biso   1.000  N
  N17      1.0000 0.47360  0.78674  0.94908  Biso   1.000  N
  N18      1.0000 0.50309  0.63455  0.25818  Biso   1.000  N
  N19      1.0000 0.53224  0.81004  0.92322  Biso   1.000  N
  N20      1.0000 0.56293  0.64557  0.25139  Biso   1.000  N
  N21      1.0000 0.58543  0.21575  0.09790  Biso   1.000  N
  N22      1.0000 0.61643  0.03742  0.45472  Biso   1.000  N
  N23      1.0000 0.63889  0.60737  0.30251  Biso   1.000  N
  N24      1.0000 0.66954  0.43956  0.63802  Biso   1.000  N
  N25      1.0000 0.69887  0.60902  0.31038  Biso   1.000  N
  N26      1.0000 0.72818  0.44739  0.63360  Biso   1.000  N
  N27      1.0000 0.75755  0.62080  0.30158  Biso   1.000  N
  N28      1.0000 0.78694  0.46153  0.61737  Biso   1.000  N
  N29      1.0000 0.81739  0.63357  0.27377  Biso   1.000  N
  N30      1.0000 0.84029  0.07381  0.40234  Biso   1.000  N
  N31      1.0000 0.87051  0.24293  0.05950  Biso   1.000  N
  N32      1.0000 0.89996  0.07409  0.37470  Biso   1.000  N
  N33      1.0000 0.92920  0.23215  0.04683  Biso   1.000  N
  N34      1.0000 0.95834  0.06125  0.37181  Biso   1.000  N
  N35      1.0000 0.98908  0.22142  0.04334  Biso   1.000  N
