data_image0
_cell_length_a       29.592
_cell_length_b       2.14436
_cell_length_c       2.46951
_cell_angle_alpha    66.0235
_cell_angle_beta     88.3333
_cell_angle_gamma    89.9719

_symmetry_space_group_name_H-M    "P 1"
_symmetry_int_tables_number       1

loop_
  _symmetry_equiv_pos_as_xyz
  'x, y, z'

loop_
  _atom_site_label
  _atom_site_occupancy
  _atom_site_fract_x
  _atom_site_fract_y
  _atom_site_fract_z
  _atom_site_thermal_displace_type
  _atom_site_B_iso_or_equiv
  _atom_site_type_symbol
  N1       1.0000 0.01093  0.58781  0.35602  Biso   1.000  N
  N2       1.0000 0.04650  0.42336  0.68531  Biso   1.000  N
  N3       1.0000 0.08106  0.59317  0.35268  Biso   1.000  N
  N4       1.0000 0.11524  0.42993  0.66977  Biso   1.000  N
  N5       1.0000 0.14963  0.60017  0.33166  Biso   1.000  N
  N6       1.0000 0.18418  0.44149  0.63761  Biso   1.000  N
  N7       1.0000 0.21972  0.61302  0.28551  Biso   1.000  N
  N8       1.0000 0.24666  0.05558  0.40674  Biso   1.000  N
  N9       1.0000 0.28213  0.22431  0.05600  Biso   1.000  N
  N10      1.0000 0.31668  0.06535  0.36346  Biso   1.000  N
  N11      1.0000 0.35211  0.23343  0.01208  Biso   1.000  N
  N12      1.0000 0.37909  0.67474  0.13374  Biso   1.000  N
  N13      1.0000 0.41466  0.84348  0.78376  Biso   1.000  N
  N14      1.0000 0.44921  0.68316  0.08979  Biso   1.000  N
  N15      1.0000 0.48358  0.85176  0.75270  Biso   1.000  N
  N16      1.0000 0.51773  0.68531  0.06989  Biso   1.000  N
  N17      1.0000 0.55248  0.85255  0.74114  Biso   1.000  N
  N18      1.0000 0.58772  0.69195  0.06732  Biso   1.000  N
  N19      1.0000 0.61501  0.26188  0.92419  Biso   1.000  N
  N20      1.0000 0.65015  0.10669  0.24572  Biso   1.000  N
  N21      1.0000 0.68501  0.27719  0.91176  Biso   1.000  N
  N22      1.0000 0.72027  0.12795  0.22939  Biso   1.000  N
  N23      1.0000 0.74759  0.69916  0.08438  Biso   1.000  N
  N24      1.0000 0.78301  0.55027  0.39643  Biso   1.000  N
  N25      1.0000 0.81756  0.73495  0.05021  Biso   1.000  N
  N26      1.0000 0.85166  0.59155  0.35133  Biso   1.000  N
  N27      1.0000 0.88607  0.77682  0.00557  Biso   1.000  N
  N28      1.0000 0.92165  0.61746  0.32535  Biso   1.000  N
  N29      1.0000 0.94833  0.18891  0.16685  Biso   1.000  N
  N30      1.0000 0.98435  0.01662  0.51365  Biso   1.000  N
