data_image0
_cell_length_a       32.6768
_cell_length_b       2.16432
_cell_length_c       2.46182
_cell_angle_alpha    65.8816
_cell_angle_beta     91.0377
_cell_angle_gamma    91.9286

_symmetry_space_group_name_H-M    "P 1"
_symmetry_int_tables_number       1

loop_
  _symmetry_equiv_pos_as_xyz
  'x, y, z'

loop_
  _atom_site_label
  _atom_site_occupancy
  _atom_site_fract_x
  _atom_site_fract_y
  _atom_site_fract_z
  _atom_site_thermal_displace_type
  _atom_site_B_iso_or_equiv
  _atom_site_type_symbol
  N1       1.0000 0.01275  0.84132  0.83879  Biso   1.000  N
  N2       1.0000 0.04573  0.66896  0.21496  Biso   1.000  N
  N3       1.0000 0.06954  0.24508  0.06904  Biso   1.000  N
  N4       1.0000 0.10194  0.09039  0.41011  Biso   1.000  N
  N5       1.0000 0.13283  0.28672  0.08828  Biso   1.000  N
  N6       1.0000 0.16397  0.15894  0.41172  Biso   1.000  N
  N7       1.0000 0.19473  0.36798  0.08075  Biso   1.000  N
  N8       1.0000 0.22628  0.25383  0.39140  Biso   1.000  N
  N9       1.0000 0.25679  0.46731  0.05458  Biso   1.000  N
  N10      1.0000 0.28826  0.35283  0.36627  Biso   1.000  N
  N11      1.0000 0.31917  0.56235  0.03659  Biso   1.000  N
  N12      1.0000 0.35013  0.43588  0.36164  Biso   1.000  N
  N13      1.0000 0.38126  0.63189  0.04290  Biso   1.000  N
  N14      1.0000 0.41327  0.48214  0.38379  Biso   1.000  N
  N15      1.0000 0.43756  0.05430  0.25217  Biso   1.000  N
  N16      1.0000 0.46965  0.89953  0.59434  Biso   1.000  N
  N17      1.0000 0.50071  0.07828  0.27336  Biso   1.000  N
  N18      1.0000 0.53170  0.92561  0.59866  Biso   1.000  N
  N19      1.0000 0.56383  0.10797  0.26338  Biso   1.000  N
  N20      1.0000 0.58836  0.55830  0.39860  Biso   1.000  N
  N21      1.0000 0.62007  0.73465  0.06524  Biso   1.000  N
  N22      1.0000 0.65150  0.56345  0.39023  Biso   1.000  N
  N23      1.0000 0.68214  0.71735  0.07014  Biso   1.000  N
  N24      1.0000 0.71350  0.54355  0.39764  Biso   1.000  N
  N25      1.0000 0.74536  0.70824  0.06879  Biso   1.000  N
  N26      1.0000 0.77005  0.15099  0.20100  Biso   1.000  N
  N27      1.0000 0.80205  0.31833  0.87265  Biso   1.000  N
  N28      1.0000 0.83338  0.15097  0.19694  Biso   1.000  N
  N29      1.0000 0.86431  0.30714  0.87978  Biso   1.000  N
  N30      1.0000 0.89557  0.12733  0.21059  Biso   1.000  N
  N31      1.0000 0.92637  0.28817  0.88956  Biso   1.000  N
  N32      1.0000 0.95755  0.12498  0.21594  Biso   1.000  N
  N33      1.0000 0.98972  0.30777  0.88517  Biso   1.000  N
