data_image0
_cell_length_a       32.9613
_cell_length_b       2.15511
_cell_length_c       2.47087
_cell_angle_alpha    64.1447
_cell_angle_beta     94.1492
_cell_angle_gamma    89.6955

_symmetry_space_group_name_H-M    "P 1"
_symmetry_int_tables_number       1

loop_
  _symmetry_equiv_pos_as_xyz
  'x, y, z'

loop_
  _atom_site_label
  _atom_site_occupancy
  _atom_site_fract_x
  _atom_site_fract_y
  _atom_site_fract_z
  _atom_site_thermal_displace_type
  _atom_site_B_iso_or_equiv
  _atom_site_type_symbol
  N1       1.0000 0.01243  0.71372  0.05478  Biso   1.000  N
  N2       1.0000 0.04508  0.52673  0.43158  Biso   1.000  N
  N3       1.0000 0.07591  0.67909  0.14259  Biso   1.000  N
  N4       1.0000 0.10743  0.51146  0.49486  Biso   1.000  N
  N5       1.0000 0.13926  0.66613  0.18908  Biso   1.000  N
  N6       1.0000 0.16392  0.08279  0.35320  Biso   1.000  N
  N7       1.0000 0.19580  0.22893  0.05983  Biso   1.000  N
  N8       1.0000 0.22742  0.04692  0.41891  Biso   1.000  N
  N9       1.0000 0.25925  0.19080  0.12506  Biso   1.000  N
  N10      1.0000 0.28394  0.61022  0.28071  Biso   1.000  N
  N11      1.0000 0.31578  0.75333  0.98661  Biso   1.000  N
  N12      1.0000 0.34721  0.56968  0.34727  Biso   1.000  N
  N13      1.0000 0.37936  0.71157  0.05602  Biso   1.000  N
  N14      1.0000 0.40365  0.13082  0.21217  Biso   1.000  N
  N15      1.0000 0.43566  0.27751  0.91268  Biso   1.000  N
  N16      1.0000 0.46704  0.10193  0.26661  Biso   1.000  N
  N17      1.0000 0.49803  0.24891  0.98218  Biso   1.000  N
  N18      1.0000 0.52959  0.07966  0.33310  Biso   1.000  N
  N19      1.0000 0.56084  0.22771  0.05297  Biso   1.000  N
  N20      1.0000 0.59238  0.05686  0.40544  Biso   1.000  N
  N21      1.0000 0.62335  0.20430  0.12110  Biso   1.000  N
  N22      1.0000 0.65489  0.02970  0.47213  Biso   1.000  N
  N23      1.0000 0.68677  0.17943  0.16926  Biso   1.000  N
  N24      1.0000 0.71116  0.60085  0.32195  Biso   1.000  N
  N25      1.0000 0.74305  0.74810  0.02119  Biso   1.000  N
  N26      1.0000 0.77466  0.56620  0.37519  Biso   1.000  N
  N27      1.0000 0.80651  0.71293  0.07454  Biso   1.000  N
  N28      1.0000 0.83109  0.13505  0.22580  Biso   1.000  N
  N29      1.0000 0.86275  0.28225  0.92481  Biso   1.000  N
  N30      1.0000 0.89453  0.10544  0.27418  Biso   1.000  N
  N31      1.0000 0.92532  0.24598  0.99468  Biso   1.000  N
  N32      1.0000 0.95702  0.06995  0.34486  Biso   1.000  N
  N33      1.0000 0.98893  0.21754  0.04967  Biso   1.000  N
