data_image0
_cell_length_a       31.5544
_cell_length_b       2.16088
_cell_length_c       2.4781
_cell_angle_alpha    65.4099
_cell_angle_beta     86.9149
_cell_angle_gamma    90.0237

_symmetry_space_group_name_H-M    "P 1"
_symmetry_int_tables_number       1

loop_
  _symmetry_equiv_pos_as_xyz
  'x, y, z'

loop_
  _atom_site_label
  _atom_site_occupancy
  _atom_site_fract_x
  _atom_site_fract_y
  _atom_site_fract_z
  _atom_site_thermal_displace_type
  _atom_site_B_iso_or_equiv
  _atom_site_type_symbol
  N1       1.0000 0.00696  0.60272  0.23021  Biso   1.000  N
  N2       1.0000 0.04045  0.44487  0.53933  Biso   1.000  N
  N3       1.0000 0.07257  0.63055  0.18449  Biso   1.000  N
  N4       1.0000 0.10490  0.48831  0.47339  Biso   1.000  N
  N5       1.0000 0.13684  0.67875  0.11012  Biso   1.000  N
  N6       1.0000 0.16963  0.54155  0.38879  Biso   1.000  N
  N7       1.0000 0.20148  0.73065  0.02473  Biso   1.000  N
  N8       1.0000 0.23395  0.58476  0.31321  Biso   1.000  N
  N9       1.0000 0.26608  0.76323  0.96198  Biso   1.000  N
  N10      1.0000 0.29963  0.61541  0.26564  Biso   1.000  N
  N11      1.0000 0.32476  0.18952  0.11314  Biso   1.000  N
  N12      1.0000 0.35811  0.04056  0.41859  Biso   1.000  N
  N13      1.0000 0.39056  0.23031  0.06247  Biso   1.000  N
  N14      1.0000 0.42243  0.08645  0.35645  Biso   1.000  N
  N15      1.0000 0.45504  0.27597  0.00261  Biso   1.000  N
  N16      1.0000 0.48805  0.12261  0.31327  Biso   1.000  N
  N17      1.0000 0.51343  0.69191  0.16375  Biso   1.000  N
  N18      1.0000 0.54648  0.53500  0.48020  Biso   1.000  N
  N19      1.0000 0.57894  0.71270  0.14036  Biso   1.000  N
  N20      1.0000 0.61084  0.55280  0.44936  Biso   1.000  N
  N21      1.0000 0.64336  0.72555  0.10756  Biso   1.000  N
  N22      1.0000 0.67551  0.56166  0.40931  Biso   1.000  N
  N23      1.0000 0.70781  0.73291  0.05945  Biso   1.000  N
  N24      1.0000 0.73986  0.57074  0.35628  Biso   1.000  N
  N25      1.0000 0.77327  0.75080  0.99137  Biso   1.000  N
  N26      1.0000 0.79834  0.19934  0.10353  Biso   1.000  N
  N27      1.0000 0.83168  0.37764  0.74513  Biso   1.000  N
  N28      1.0000 0.86507  0.22094  0.05447  Biso   1.000  N
  N29      1.0000 0.88993  0.79516  0.88822  Biso   1.000  N
  N30      1.0000 0.92376  0.61975  0.23524  Biso   1.000  N
  N31      1.0000 0.94813  0.20065  0.05671  Biso   1.000  N
  N32      1.0000 0.98216  0.02620  0.40065  Biso   1.000  N
