data_image0
_cell_length_a       34.5397
_cell_length_b       2.1481
_cell_length_c       2.46702
_cell_angle_alpha    65.7117
_cell_angle_beta     87.7157
_cell_angle_gamma    88.2483

_symmetry_space_group_name_H-M    "P 1"
_symmetry_int_tables_number       1

loop_
  _symmetry_equiv_pos_as_xyz
  'x, y, z'

loop_
  _atom_site_label
  _atom_site_occupancy
  _atom_site_fract_x
  _atom_site_fract_y
  _atom_site_fract_z
  _atom_site_thermal_displace_type
  _atom_site_B_iso_or_equiv
  _atom_site_type_symbol
  N1       1.0000 0.01127  0.72748  0.08188  Biso   1.000  N
  N2       1.0000 0.04177  0.54713  0.41028  Biso   1.000  N
  N3       1.0000 0.07130  0.69726  0.07856  Biso   1.000  N
  N4       1.0000 0.10067  0.51580  0.39567  Biso   1.000  N
  N5       1.0000 0.13011  0.66787  0.05733  Biso   1.000  N
  N6       1.0000 0.15971  0.49302  0.36380  Biso   1.000  N
  N7       1.0000 0.19007  0.64757  0.01110  Biso   1.000  N
  N8       1.0000 0.21307  0.07559  0.13158  Biso   1.000  N
  N9       1.0000 0.24371  0.21618  0.79165  Biso   1.000  N
  N10      1.0000 0.27435  0.05086  0.10702  Biso   1.000  N
  N11      1.0000 0.29735  0.60939  0.96708  Biso   1.000  N
  N12      1.0000 0.32783  0.43908  0.28360  Biso   1.000  N
  N13      1.0000 0.35760  0.58899  0.94857  Biso   1.000  N
  N14      1.0000 0.38775  0.42017  0.26493  Biso   1.000  N
  N15      1.0000 0.41151  0.98512  0.11745  Biso   1.000  N
  N16      1.0000 0.44154  0.81818  0.43642  Biso   1.000  N
  N17      1.0000 0.47138  0.97492  0.10065  Biso   1.000  N
  N18      1.0000 0.50174  0.80469  0.41752  Biso   1.000  N
  N19      1.0000 0.52486  0.36476  0.26829  Biso   1.000  N
  N20      1.0000 0.55552  0.18841  0.58860  Biso   1.000  N
  N21      1.0000 0.58469  0.34614  0.24825  Biso   1.000  N
  N22      1.0000 0.61431  0.17269  0.55398  Biso   1.000  N
  N23      1.0000 0.64460  0.33723  0.19711  Biso   1.000  N
  N24      1.0000 0.66765  0.76992  0.31973  Biso   1.000  N
  N25      1.0000 0.69796  0.93271  0.96461  Biso   1.000  N
  N26      1.0000 0.72751  0.76070  0.27078  Biso   1.000  N
  N27      1.0000 0.75694  0.91874  0.93109  Biso   1.000  N
  N28      1.0000 0.78617  0.73879  0.24886  Biso   1.000  N
  N29      1.0000 0.81588  0.89054  0.91906  Biso   1.000  N
  N30      1.0000 0.84607  0.70887  0.24876  Biso   1.000  N
  N31      1.0000 0.86921  0.26279  0.10536  Biso   1.000  N
  N32      1.0000 0.89946  0.08242  0.43557  Biso   1.000  N
  N33      1.0000 0.92922  0.24405  0.10611  Biso   1.000  N
  N34      1.0000 0.95802  0.07511  0.42546  Biso   1.000  N
  N35      1.0000 0.98923  0.23933  0.07826  Biso   1.000  N
