data_image0
_cell_length_a       34.7018
_cell_length_b       2.14434
_cell_length_c       2.4656
_cell_angle_alpha    65.8483
_cell_angle_beta     90.7278
_cell_angle_gamma    90.0768

_symmetry_space_group_name_H-M    "P 1"
_symmetry_int_tables_number       1

loop_
  _symmetry_equiv_pos_as_xyz
  'x, y, z'

loop_
  _atom_site_label
  _atom_site_occupancy
  _atom_site_fract_x
  _atom_site_fract_y
  _atom_site_fract_z
  _atom_site_thermal_displace_type
  _atom_site_B_iso_or_equiv
  _atom_site_type_symbol
  N1       1.0000 0.01169  0.76705  0.96306  Biso   1.000  N
  N2       1.0000 0.04224  0.60147  0.30188  Biso   1.000  N
  N3       1.0000 0.07136  0.76168  0.97880  Biso   1.000  N
  N4       1.0000 0.10186  0.59613  0.31679  Biso   1.000  N
  N5       1.0000 0.12482  0.15902  0.18602  Biso   1.000  N
  N6       1.0000 0.15510  0.98974  0.53104  Biso   1.000  N
  N7       1.0000 0.18463  0.15119  0.21847  Biso   1.000  N
  N8       1.0000 0.21377  0.98114  0.55420  Biso   1.000  N
  N9       1.0000 0.24313  0.14799  0.23518  Biso   1.000  N
  N10      1.0000 0.27262  0.98528  0.56108  Biso   1.000  N
  N11      1.0000 0.30290  0.14717  0.23232  Biso   1.000  N
  N12      1.0000 0.32614  0.57514  0.37592  Biso   1.000  N
  N13      1.0000 0.35646  0.72942  0.05552  Biso   1.000  N
  N14      1.0000 0.38596  0.56058  0.38762  Biso   1.000  N
  N15      1.0000 0.41624  0.71506  0.06588  Biso   1.000  N
  N16      1.0000 0.43940  0.14502  0.20942  Biso   1.000  N
  N17      1.0000 0.46982  0.30287  0.88518  Biso   1.000  N
  N18      1.0000 0.49894  0.13030  0.21742  Biso   1.000  N
  N19      1.0000 0.52842  0.28696  0.90413  Biso   1.000  N
  N20      1.0000 0.55744  0.11248  0.24073  Biso   1.000  N
  N21      1.0000 0.58704  0.27409  0.92922  Biso   1.000  N
  N22      1.0000 0.61608  0.10399  0.26622  Biso   1.000  N
  N23      1.0000 0.64541  0.26793  0.95405  Biso   1.000  N
  N24      1.0000 0.67566  0.09664  0.30072  Biso   1.000  N
  N25      1.0000 0.69841  0.65819  0.17231  Biso   1.000  N
  N26      1.0000 0.72900  0.49772  0.50896  Biso   1.000  N
  N27      1.0000 0.75929  0.65569  0.18261  Biso   1.000  N
  N28      1.0000 0.78235  0.08976  0.31936  Biso   1.000  N
  N29      1.0000 0.81220  0.25929  0.98290  Biso   1.000  N
  N30      1.0000 0.84212  0.09673  0.30222  Biso   1.000  N
  N31      1.0000 0.87072  0.26521  0.97641  Biso   1.000  N
  N32      1.0000 0.90075  0.08989  0.30464  Biso   1.000  N
  N33      1.0000 0.92937  0.25686  0.98057  Biso   1.000  N
  N34      1.0000 0.95926  0.09327  0.30316  Biso   1.000  N
  N35      1.0000 0.98942  0.26156  0.97096  Biso   1.000  N
