data_image0
_cell_length_a       29.6514
_cell_length_b       2.14367
_cell_length_c       2.46674
_cell_angle_alpha    65.7755
_cell_angle_beta     88.3061
_cell_angle_gamma    90.1991

_symmetry_space_group_name_H-M    "P 1"
_symmetry_int_tables_number       1

loop_
  _symmetry_equiv_pos_as_xyz
  'x, y, z'

loop_
  _atom_site_label
  _atom_site_occupancy
  _atom_site_fract_x
  _atom_site_fract_y
  _atom_site_fract_z
  _atom_site_thermal_displace_type
  _atom_site_B_iso_or_equiv
  _atom_site_type_symbol
  N1       1.0000 0.01551  0.77408  0.91765  Biso   1.000  N
  N2       1.0000 0.05087  0.61830  0.23690  Biso   1.000  N
  N3       1.0000 0.08562  0.78806  0.90240  Biso   1.000  N
  N4       1.0000 0.12051  0.62973  0.22417  Biso   1.000  N
  N5       1.0000 0.14823  0.20102  0.07777  Biso   1.000  N
  N6       1.0000 0.18316  0.04815  0.39410  Biso   1.000  N
  N7       1.0000 0.21814  0.22090  0.06046  Biso   1.000  N
  N8       1.0000 0.25312  0.07046  0.37712  Biso   1.000  N
  N9       1.0000 0.28064  0.64192  0.23305  Biso   1.000  N
  N10      1.0000 0.31566  0.48631  0.55517  Biso   1.000  N
  N11      1.0000 0.35035  0.65774  0.21982  Biso   1.000  N
  N12      1.0000 0.38569  0.50555  0.54117  Biso   1.000  N
  N13      1.0000 0.41241  0.07603  0.40032  Biso   1.000  N
  N14      1.0000 0.44828  0.93171  0.71404  Biso   1.000  N
  N15      1.0000 0.48394  0.09790  0.36763  Biso   1.000  N
  N16      1.0000 0.51090  0.53825  0.48946  Biso   1.000  N
  N17      1.0000 0.54612  0.71187  0.13656  Biso   1.000  N
  N18      1.0000 0.58086  0.54844  0.44145  Biso   1.000  N
  N19      1.0000 0.61471  0.71171  0.10300  Biso   1.000  N
  N20      1.0000 0.64947  0.53438  0.41652  Biso   1.000  N
  N21      1.0000 0.68338  0.69595  0.07861  Biso   1.000  N
  N22      1.0000 0.71795  0.52980  0.38631  Biso   1.000  N
  N23      1.0000 0.75337  0.70470  0.03554  Biso   1.000  N
  N24      1.0000 0.78035  0.14902  0.15857  Biso   1.000  N
  N25      1.0000 0.81571  0.32876  0.80100  Biso   1.000  N
  N26      1.0000 0.85018  0.17572  0.10438  Biso   1.000  N
  N27      1.0000 0.88440  0.35425  0.75955  Biso   1.000  N
  N28      1.0000 0.91867  0.19628  0.07067  Biso   1.000  N
  N29      1.0000 0.95318  0.36690  0.73624  Biso   1.000  N
  N30      1.0000 0.98862  0.20614  0.06037  Biso   1.000  N
