data_image0
_cell_length_a       33.8308
_cell_length_b       2.15909
_cell_length_c       2.46288
_cell_angle_alpha    65.6639
_cell_angle_beta     86.3849
_cell_angle_gamma    87.6663

_symmetry_space_group_name_H-M    "P 1"
_symmetry_int_tables_number       1

loop_
  _symmetry_equiv_pos_as_xyz
  'x, y, z'

loop_
  _atom_site_label
  _atom_site_occupancy
  _atom_site_fract_x
  _atom_site_fract_y
  _atom_site_fract_z
  _atom_site_thermal_displace_type
  _atom_site_B_iso_or_equiv
  _atom_site_type_symbol
  N1       1.0000 0.01297  0.59698  0.24689  Biso   1.000  N
  N2       1.0000 0.04383  0.42543  0.56172  Biso   1.000  N
  N3       1.0000 0.07545  0.56800  0.21527  Biso   1.000  N
  N4       1.0000 0.09877  0.99495  0.33440  Biso   1.000  N
  N5       1.0000 0.13008  0.14536  0.97585  Biso   1.000  N
  N6       1.0000 0.15993  0.95068  0.27834  Biso   1.000  N
  N7       1.0000 0.19011  0.08064  0.93171  Biso   1.000  N
  N8       1.0000 0.22003  0.87596  0.23679  Biso   1.000  N
  N9       1.0000 0.25036  0.00554  0.89474  Biso   1.000  N
  N10      1.0000 0.28011  0.80434  0.20468  Biso   1.000  N
  N11      1.0000 0.31042  0.94349  0.86552  Biso   1.000  N
  N12      1.0000 0.34123  0.75801  0.18600  Biso   1.000  N
  N13      1.0000 0.36498  0.30884  0.04093  Biso   1.000  N
  N14      1.0000 0.39563  0.13196  0.35875  Biso   1.000  N
  N15      1.0000 0.42609  0.29821  0.01431  Biso   1.000  N
  N16      1.0000 0.45574  0.13490  0.31799  Biso   1.000  N
  N17      1.0000 0.48612  0.30482  0.97137  Biso   1.000  N
  N18      1.0000 0.51693  0.13687  0.28378  Biso   1.000  N
  N19      1.0000 0.54075  0.69516  0.13241  Biso   1.000  N
  N20      1.0000 0.57182  0.53057  0.43936  Biso   1.000  N
  N21      1.0000 0.60204  0.70962  0.09071  Biso   1.000  N
  N22      1.0000 0.63190  0.56259  0.38872  Biso   1.000  N
  N23      1.0000 0.66222  0.75248  0.03723  Biso   1.000  N
  N24      1.0000 0.69200  0.60383  0.33813  Biso   1.000  N
  N25      1.0000 0.72231  0.78190  0.99389  Biso   1.000  N
  N26      1.0000 0.75312  0.61278  0.30824  Biso   1.000  N
  N27      1.0000 0.77697  0.16986  0.15758  Biso   1.000  N
  N28      1.0000 0.80772  0.99909  0.47280  Biso   1.000  N
  N29      1.0000 0.83833  0.17595  0.13103  Biso   1.000  N
  N30      1.0000 0.86772  0.02189  0.43812  Biso   1.000  N
  N31      1.0000 0.89855  0.20826  0.09330  Biso   1.000  N
  N32      1.0000 0.92788  0.04918  0.40296  Biso   1.000  N
  N33      1.0000 0.95867  0.21910  0.06720  Biso   1.000  N
  N34      1.0000 0.98921  0.04277  0.38930  Biso   1.000  N
