data_image0
_cell_length_a       26.6345
_cell_length_b       2.14712
_cell_length_c       2.47363
_cell_angle_alpha    65.6353
_cell_angle_beta     94.8262
_cell_angle_gamma    89.777

_symmetry_space_group_name_H-M    "P 1"
_symmetry_int_tables_number       1

loop_
  _symmetry_equiv_pos_as_xyz
  'x, y, z'

loop_
  _atom_site_label
  _atom_site_occupancy
  _atom_site_fract_x
  _atom_site_fract_y
  _atom_site_fract_z
  _atom_site_thermal_displace_type
  _atom_site_B_iso_or_equiv
  _atom_site_type_symbol
  N1       1.0000 0.01834  0.67424  0.17532  Biso   1.000  N
  N2       1.0000 0.05865  0.49091  0.55045  Biso   1.000  N
  N3       1.0000 0.09846  0.62518  0.26333  Biso   1.000  N
  N4       1.0000 0.12829  0.04950  0.42188  Biso   1.000  N
  N5       1.0000 0.16781  0.19681  0.12383  Biso   1.000  N
  N6       1.0000 0.20598  0.01017  0.49166  Biso   1.000  N
  N7       1.0000 0.24592  0.15876  0.19628  Biso   1.000  N
  N8       1.0000 0.27559  0.57424  0.37754  Biso   1.000  N
  N9       1.0000 0.31569  0.73415  0.05741  Biso   1.000  N
  N10      1.0000 0.34551  0.14836  0.23887  Biso   1.000  N
  N11      1.0000 0.38543  0.28681  0.95638  Biso   1.000  N
  N12      1.0000 0.42393  0.09194  0.32725  Biso   1.000  N
  N13      1.0000 0.46311  0.22575  0.04415  Biso   1.000  N
  N14      1.0000 0.49431  0.63586  0.22029  Biso   1.000  N
  N15      1.0000 0.53329  0.77497  0.93097  Biso   1.000  N
  N16      1.0000 0.57219  0.58723  0.29219  Biso   1.000  N
  N17      1.0000 0.61167  0.72570  0.00325  Biso   1.000  N
  N18      1.0000 0.64185  0.14601  0.16483  Biso   1.000  N
  N19      1.0000 0.68103  0.29441  0.86564  Biso   1.000  N
  N20      1.0000 0.71998  0.11387  0.22319  Biso   1.000  N
  N21      1.0000 0.75778  0.26460  0.93750  Biso   1.000  N
  N22      1.0000 0.79662  0.08241  0.30308  Biso   1.000  N
  N23      1.0000 0.83450  0.23360  0.01931  Biso   1.000  N
  N24      1.0000 0.87351  0.05657  0.38200  Biso   1.000  N
  N25      1.0000 0.91120  0.21201  0.09383  Biso   1.000  N
  N26      1.0000 0.94995  0.03599  0.45462  Biso   1.000  N
  N27      1.0000 0.98939  0.18246  0.15995  Biso   1.000  N
