data_image0
_cell_length_a       29.91
_cell_length_b       2.1645
_cell_length_c       2.46685
_cell_angle_alpha    63.9689
_cell_angle_beta     89.5843
_cell_angle_gamma    90.6927

_symmetry_space_group_name_H-M    "P 1"
_symmetry_int_tables_number       1

loop_
  _symmetry_equiv_pos_as_xyz
  'x, y, z'

loop_
  _atom_site_label
  _atom_site_occupancy
  _atom_site_fract_x
  _atom_site_fract_y
  _atom_site_fract_z
  _atom_site_thermal_displace_type
  _atom_site_B_iso_or_equiv
  _atom_site_type_symbol
  N1       1.0000 0.01710  0.65456  0.17457  Biso   1.000  N
  N2       1.0000 0.05257  0.50160  0.49358  Biso   1.000  N
  N3       1.0000 0.08767  0.67390  0.15806  Biso   1.000  N
  N4       1.0000 0.11439  0.11596  0.28124  Biso   1.000  N
  N5       1.0000 0.14960  0.28936  0.93770  Biso   1.000  N
  N6       1.0000 0.18369  0.12746  0.25359  Biso   1.000  N
  N7       1.0000 0.21818  0.28519  0.93012  Biso   1.000  N
  N8       1.0000 0.25311  0.12254  0.26542  Biso   1.000  N
  N9       1.0000 0.28016  0.69766  0.13004  Biso   1.000  N
  N10      1.0000 0.31505  0.53292  0.46623  Biso   1.000  N
  N11      1.0000 0.34959  0.68352  0.14422  Biso   1.000  N
  N12      1.0000 0.38362  0.51473  0.46130  Biso   1.000  N
  N13      1.0000 0.41890  0.68307  0.11924  Biso   1.000  N
  N14      1.0000 0.44562  0.12236  0.24362  Biso   1.000  N
  N15      1.0000 0.48077  0.29114  0.90899  Biso   1.000  N
  N16      1.0000 0.51624  0.13624  0.22838  Biso   1.000  N
  N17      1.0000 0.54284  0.70447  0.10046  Biso   1.000  N
  N18      1.0000 0.57791  0.54903  0.42865  Biso   1.000  N
  N19      1.0000 0.61245  0.74072  0.10014  Biso   1.000  N
  N20      1.0000 0.64667  0.63359  0.40126  Biso   1.000  N
  N21      1.0000 0.68081  0.84409  0.06801  Biso   1.000  N
  N22      1.0000 0.71549  0.74455  0.36927  Biso   1.000  N
  N23      1.0000 0.74947  0.95264  0.04361  Biso   1.000  N
  N24      1.0000 0.78392  0.84795  0.35528  Biso   1.000  N
  N25      1.0000 0.81792  0.05565  0.02983  Biso   1.000  N
  N26      1.0000 0.85257  0.95433  0.33161  Biso   1.000  N
  N27      1.0000 0.88675  0.16244  0.99891  Biso   1.000  N
  N28      1.0000 0.92093  0.05137  0.30114  Biso   1.000  N
  N29      1.0000 0.95550  0.24125  0.97324  Biso   1.000  N
  N30      1.0000 0.99052  0.08568  0.30229  Biso   1.000  N
