data_image0
_cell_length_a       34.6366
_cell_length_b       2.15273
_cell_length_c       2.46799
_cell_angle_alpha    65.6145
_cell_angle_beta     90.7414
_cell_angle_gamma    89.9669

_symmetry_space_group_name_H-M    "P 1"
_symmetry_int_tables_number       1

loop_
  _symmetry_equiv_pos_as_xyz
  'x, y, z'

loop_
  _atom_site_label
  _atom_site_occupancy
  _atom_site_fract_x
  _atom_site_fract_y
  _atom_site_fract_z
  _atom_site_thermal_displace_type
  _atom_site_B_iso_or_equiv
  _atom_site_type_symbol
  N1       1.0000 0.01252  0.73244  0.03229  Biso   1.000  N
  N2       1.0000 0.04281  0.55572  0.38282  Biso   1.000  N
  N3       1.0000 0.07229  0.71076  0.07175  Biso   1.000  N
  N4       1.0000 0.10148  0.53666  0.41043  Biso   1.000  N
  N5       1.0000 0.13086  0.69907  0.09280  Biso   1.000  N
  N6       1.0000 0.16031  0.53685  0.41959  Biso   1.000  N
  N7       1.0000 0.19067  0.69777  0.08885  Biso   1.000  N
  N8       1.0000 0.21351  0.12939  0.22401  Biso   1.000  N
  N9       1.0000 0.24412  0.26964  0.90702  Biso   1.000  N
  N10      1.0000 0.27472  0.11869  0.24402  Biso   1.000  N
  N11      1.0000 0.29736  0.68458  0.11930  Biso   1.000  N
  N12      1.0000 0.32820  0.52962  0.45134  Biso   1.000  N
  N13      1.0000 0.35843  0.68414  0.12401  Biso   1.000  N
  N14      1.0000 0.38148  0.12067  0.25654  Biso   1.000  N
  N15      1.0000 0.41138  0.29375  0.91323  Biso   1.000  N
  N16      1.0000 0.44104  0.13288  0.22992  Biso   1.000  N
  N17      1.0000 0.46991  0.30111  0.90406  Biso   1.000  N
  N18      1.0000 0.50058  0.13141  0.24082  Biso   1.000  N
  N19      1.0000 0.52341  0.69262  0.10609  Biso   1.000  N
  N20      1.0000 0.55375  0.52092  0.45130  Biso   1.000  N
  N21      1.0000 0.58309  0.68905  0.13744  Biso   1.000  N
  N22      1.0000 0.61229  0.52428  0.47059  Biso   1.000  N
  N23      1.0000 0.64166  0.69349  0.15129  Biso   1.000  N
  N24      1.0000 0.67121  0.52607  0.47522  Biso   1.000  N
  N25      1.0000 0.70027  0.69148  0.14886  Biso   1.000  N
  N26      1.0000 0.72975  0.52084  0.47159  Biso   1.000  N
  N27      1.0000 0.75991  0.68776  0.13621  Biso   1.000  N
  N28      1.0000 0.78294  0.12293  0.27703  Biso   1.000  N
  N29      1.0000 0.81336  0.28386  0.95298  Biso   1.000  N
  N30      1.0000 0.84261  0.10804  0.28787  Biso   1.000  N
  N31      1.0000 0.87197  0.26138  0.98056  Biso   1.000  N
  N32      1.0000 0.90127  0.07960  0.32451  Biso   1.000  N
  N33      1.0000 0.93065  0.23929  0.01558  Biso   1.000  N
  N34      1.0000 0.95974  0.07043  0.34999  Biso   1.000  N
  N35      1.0000 0.99043  0.23528  0.02508  Biso   1.000  N
