data_image0
_cell_length_a       38.5401
_cell_length_b       2.16988
_cell_length_c       2.45216
_cell_angle_alpha    63.75
_cell_angle_beta     88.8365
_cell_angle_gamma    84.531

_symmetry_space_group_name_H-M    "P 1"
_symmetry_int_tables_number       1

loop_
  _symmetry_equiv_pos_as_xyz
  'x, y, z'

loop_
  _atom_site_label
  _atom_site_occupancy
  _atom_site_fract_x
  _atom_site_fract_y
  _atom_site_fract_z
  _atom_site_thermal_displace_type
  _atom_site_B_iso_or_equiv
  _atom_site_type_symbol
  N1       1.0000 0.01459  0.05097  0.04119  Biso   1.000  N
  N2       1.0000 0.04144  0.81093  0.37320  Biso   1.000  N
  N3       1.0000 0.06813  0.90661  0.06080  Biso   1.000  N
  N4       1.0000 0.09517  0.69729  0.38401  Biso   1.000  N
  N5       1.0000 0.12189  0.81998  0.06650  Biso   1.000  N
  N6       1.0000 0.14877  0.63419  0.38823  Biso   1.000  N
  N7       1.0000 0.17548  0.76193  0.07328  Biso   1.000  N
  N8       1.0000 0.20320  0.55195  0.41527  Biso   1.000  N
  N9       1.0000 0.22388  0.08233  0.29186  Biso   1.000  N
  N10      1.0000 0.25173  0.87347  0.62819  Biso   1.000  N
  N11      1.0000 0.27914  0.99841  0.30318  Biso   1.000  N
  N12      1.0000 0.30001  0.40354  0.43317  Biso   1.000  N
  N13      1.0000 0.32725  0.53419  0.10470  Biso   1.000  N
  N14      1.0000 0.35436  0.35137  0.43279  Biso   1.000  N
  N15      1.0000 0.38087  0.50452  0.12612  Biso   1.000  N
  N16      1.0000 0.40785  0.33084  0.45899  Biso   1.000  N
  N17      1.0000 0.43444  0.48107  0.15342  Biso   1.000  N
  N18      1.0000 0.46140  0.29204  0.48455  Biso   1.000  N
  N19      1.0000 0.48884  0.41774  0.15815  Biso   1.000  N
  N20      1.0000 0.50980  0.81763  0.29182  Biso   1.000  N
  N21      1.0000 0.53718  0.93707  0.96911  Biso   1.000  N
  N22      1.0000 0.56425  0.73324  0.30089  Biso   1.000  N
  N23      1.0000 0.59085  0.85004  0.00375  Biso   1.000  N
  N24      1.0000 0.61786  0.64151  0.33833  Biso   1.000  N
  N25      1.0000 0.64532  0.75644  0.01857  Biso   1.000  N
  N26      1.0000 0.66620  0.15211  0.15596  Biso   1.000  N
  N27      1.0000 0.69389  0.25826  0.83418  Biso   1.000  N
  N28      1.0000 0.72055  0.02207  0.17029  Biso   1.000  N
  N29      1.0000 0.74742  0.07783  0.87147  Biso   1.000  N
  N30      1.0000 0.77393  0.82335  0.21242  Biso   1.000  N
  N31      1.0000 0.80097  0.87114  0.91625  Biso   1.000  N
  N32      1.0000 0.82740  0.61017  0.25568  Biso   1.000  N
  N33      1.0000 0.85430  0.65704  0.95378  Biso   1.000  N
  N34      1.0000 0.88081  0.39417  0.28526  Biso   1.000  N
  N35      1.0000 0.90775  0.44571  0.97965  Biso   1.000  N
  N36      1.0000 0.93426  0.18177  0.31249  Biso   1.000  N
  N37      1.0000 0.96102  0.23592  0.00861  Biso   1.000  N
  N38      1.0000 0.98781  0.98117  0.34390  Biso   1.000  N
