data_image0
_cell_length_a       24.7113
_cell_length_b       2.14827
_cell_length_c       2.46747
_cell_angle_alpha    65.6387
_cell_angle_beta     91.1799
_cell_angle_gamma    87.531

_symmetry_space_group_name_H-M    "P 1"
_symmetry_int_tables_number       1

loop_
  _symmetry_equiv_pos_as_xyz
  'x, y, z'

loop_
  _atom_site_label
  _atom_site_occupancy
  _atom_site_fract_x
  _atom_site_fract_y
  _atom_site_fract_z
  _atom_site_thermal_displace_type
  _atom_site_B_iso_or_equiv
  _atom_site_type_symbol
  N1       1.0000 0.01634  0.79509  0.91833  Biso   1.000  N
  N2       1.0000 0.05926  0.59897  0.26744  Biso   1.000  N
  N3       1.0000 0.10077  0.72922  0.96064  Biso   1.000  N
  N4       1.0000 0.14300  0.52916  0.31517  Biso   1.000  N
  N5       1.0000 0.17569  0.06860  0.19383  Biso   1.000  N
  N6       1.0000 0.21827  0.86920  0.55016  Biso   1.000  N
  N7       1.0000 0.25949  0.00740  0.24423  Biso   1.000  N
  N8       1.0000 0.30085  0.81610  0.58417  Biso   1.000  N
  N9       1.0000 0.34324  0.95974  0.26250  Biso   1.000  N
  N10      1.0000 0.37592  0.37560  0.41169  Biso   1.000  N
  N11      1.0000 0.41789  0.51759  0.09063  Biso   1.000  N
  N12      1.0000 0.45986  0.32713  0.42765  Biso   1.000  N
  N13      1.0000 0.50175  0.46622  0.10595  Biso   1.000  N
  N14      1.0000 0.53459  0.88001  0.25484  Biso   1.000  N
  N15      1.0000 0.57697  0.01195  0.94250  Biso   1.000  N
  N16      1.0000 0.61839  0.81075  0.28526  Biso   1.000  N
  N17      1.0000 0.65958  0.93519  0.98702  Biso   1.000  N
  N18      1.0000 0.70070  0.72689  0.33972  Biso   1.000  N
  N19      1.0000 0.74186  0.85727  0.04072  Biso   1.000  N
  N20      1.0000 0.78345  0.66364  0.38119  Biso   1.000  N
  N21      1.0000 0.82568  0.80170  0.06633  Biso   1.000  N
  N22      1.0000 0.85868  0.21842  0.21244  Biso   1.000  N
  N23      1.0000 0.90048  0.35985  0.89066  Biso   1.000  N
  N24      1.0000 0.94238  0.17416  0.22798  Biso   1.000  N
  N25      1.0000 0.98492  0.31265  0.91394  Biso   1.000  N
