data_image0
_cell_length_a       30.55
_cell_length_b       2.15321
_cell_length_c       2.46575
_cell_angle_alpha    65.9237
_cell_angle_beta     89.0191
_cell_angle_gamma    90.1008

_symmetry_space_group_name_H-M    "P 1"
_symmetry_int_tables_number       1

loop_
  _symmetry_equiv_pos_as_xyz
  'x, y, z'

loop_
  _atom_site_label
  _atom_site_occupancy
  _atom_site_fract_x
  _atom_site_fract_y
  _atom_site_fract_z
  _atom_site_thermal_displace_type
  _atom_site_B_iso_or_equiv
  _atom_site_type_symbol
  N1       1.0000 0.01431  0.85242  0.73718  Biso   1.000  N
  N2       1.0000 0.04950  0.66842  0.10537  Biso   1.000  N
  N3       1.0000 0.07508  0.23614  0.95588  Biso   1.000  N
  N4       1.0000 0.10957  0.06985  0.29014  Biso   1.000  N
  N5       1.0000 0.14302  0.23973  0.96173  Biso   1.000  N
  N6       1.0000 0.17704  0.07771  0.29490  Biso   1.000  N
  N7       1.0000 0.20346  0.64391  0.15327  Biso   1.000  N
  N8       1.0000 0.23771  0.48792  0.47603  Biso   1.000  N
  N9       1.0000 0.27108  0.66686  0.14236  Biso   1.000  N
  N10      1.0000 0.30433  0.52304  0.44873  Biso   1.000  N
  N11      1.0000 0.33756  0.71386  0.10518  Biso   1.000  N
  N12      1.0000 0.37068  0.56524  0.41599  Biso   1.000  N
  N13      1.0000 0.40405  0.74241  0.08489  Biso   1.000  N
  N14      1.0000 0.43839  0.58097  0.41073  Biso   1.000  N
  N15      1.0000 0.46450  0.14508  0.27088  Biso   1.000  N
  N16      1.0000 0.49858  0.97688  0.60799  Biso   1.000  N
  N17      1.0000 0.53218  0.14194  0.28451  Biso   1.000  N
  N18      1.0000 0.56514  0.97329  0.60834  Biso   1.000  N
  N19      1.0000 0.59857  0.14267  0.27592  Biso   1.000  N
  N20      1.0000 0.63183  0.98124  0.58938  Biso   1.000  N
  N21      1.0000 0.66630  0.14965  0.24400  Biso   1.000  N
  N22      1.0000 0.69244  0.58352  0.37729  Biso   1.000  N
  N23      1.0000 0.72707  0.74467  0.04199  Biso   1.000  N
  N24      1.0000 0.76047  0.58327  0.35779  Biso   1.000  N
  N25      1.0000 0.79480  0.74125  0.01945  Biso   1.000  N
  N26      1.0000 0.82129  0.17437  0.14910  Biso   1.000  N
  N27      1.0000 0.85554  0.33164  0.81462  Biso   1.000  N
  N28      1.0000 0.88889  0.16504  0.13206  Biso   1.000  N
  N29      1.0000 0.92198  0.32329  0.80597  Biso   1.000  N
  N30      1.0000 0.95508  0.15793  0.12550  Biso   1.000  N
  N31      1.0000 0.98958  0.32829  0.78783  Biso   1.000  N
