data_image0
_cell_length_a       15.4242
_cell_length_b       2.1698
_cell_length_c       2.5305
_cell_angle_alpha    65.2942
_cell_angle_beta     79.7459
_cell_angle_gamma    90.3575

_symmetry_space_group_name_H-M    "P 1"
_symmetry_int_tables_number       1

loop_
  _symmetry_equiv_pos_as_xyz
  'x, y, z'

loop_
  _atom_site_label
  _atom_site_occupancy
  _atom_site_fract_x
  _atom_site_fract_y
  _atom_site_fract_z
  _atom_site_thermal_displace_type
  _atom_site_B_iso_or_equiv
  _atom_site_type_symbol
  N1       1.0000 0.02667  0.69551  0.10621  Biso   1.000  N
  N2       1.0000 0.09462  0.57754  0.35265  Biso   1.000  N
  N3       1.0000 0.16277  0.78818  0.94538  Biso   1.000  N
  N4       1.0000 0.23114  0.66427  0.19114  Biso   1.000  N
  N5       1.0000 0.28361  0.26630  0.97600  Biso   1.000  N
  N6       1.0000 0.35340  0.12696  0.25559  Biso   1.000  N
  N7       1.0000 0.40434  0.73665  0.02802  Biso   1.000  N
  N8       1.0000 0.47467  0.59393  0.31482  Biso   1.000  N
  N9       1.0000 0.52533  0.20607  0.08518  Biso   1.000  N
  N10      1.0000 0.59566  0.06335  0.37198  Biso   1.000  N
  N11      1.0000 0.64660  0.67304  0.14441  Biso   1.000  N
  N12      1.0000 0.71639  0.53370  0.42400  Biso   1.000  N
  N13      1.0000 0.76886  0.13573  0.20886  Biso   1.000  N
  N14      1.0000 0.83723  0.01182  0.45462  Biso   1.000  N
  N15      1.0000 0.90538  0.22246  0.04735  Biso   1.000  N
  N16      1.0000 0.97333  0.10449  0.29379  Biso   1.000  N
