data_image0
_cell_length_a       32.542
_cell_length_b       2.15511
_cell_length_c       2.46881
_cell_angle_alpha    65.8669
_cell_angle_beta     89.2975
_cell_angle_gamma    90.1021

_symmetry_space_group_name_H-M    "P 1"
_symmetry_int_tables_number       1

loop_
  _symmetry_equiv_pos_as_xyz
  'x, y, z'

loop_
  _atom_site_label
  _atom_site_occupancy
  _atom_site_fract_x
  _atom_site_fract_y
  _atom_site_fract_z
  _atom_site_thermal_displace_type
  _atom_site_B_iso_or_equiv
  _atom_site_type_symbol
  N1       1.0000 0.01297  0.79040  0.90140  Biso   1.000  N
  N2       1.0000 0.04542  0.62354  0.22987  Biso   1.000  N
  N3       1.0000 0.07652  0.79070  0.89998  Biso   1.000  N
  N4       1.0000 0.10774  0.62484  0.21030  Biso   1.000  N
  N5       1.0000 0.13892  0.80369  0.86917  Biso   1.000  N
  N6       1.0000 0.17010  0.64114  0.17703  Biso   1.000  N
  N7       1.0000 0.20126  0.81506  0.84219  Biso   1.000  N
  N8       1.0000 0.23357  0.64957  0.16864  Biso   1.000  N
  N9       1.0000 0.25782  0.21903  0.01634  Biso   1.000  N
  N10      1.0000 0.29051  0.04630  0.36667  Biso   1.000  N
  N11      1.0000 0.31486  0.61427  0.21558  Biso   1.000  N
  N12      1.0000 0.34692  0.45181  0.54387  Biso   1.000  N
  N13      1.0000 0.37829  0.63417  0.21116  Biso   1.000  N
  N14      1.0000 0.40914  0.48381  0.52547  Biso   1.000  N
  N15      1.0000 0.44056  0.66509  0.19546  Biso   1.000  N
  N16      1.0000 0.47257  0.50827  0.52189  Biso   1.000  N
  N17      1.0000 0.49693  0.07261  0.38981  Biso   1.000  N
  N18      1.0000 0.52937  0.91998  0.71324  Biso   1.000  N
  N19      1.0000 0.56183  0.08156  0.37788  Biso   1.000  N
  N20      1.0000 0.58616  0.52382  0.50176  Biso   1.000  N
  N21      1.0000 0.61835  0.69374  0.15655  Biso   1.000  N
  N22      1.0000 0.64960  0.53637  0.47368  Biso   1.000  N
  N23      1.0000 0.68189  0.70447  0.13027  Biso   1.000  N
  N24      1.0000 0.70631  0.14627  0.25602  Biso   1.000  N
  N25      1.0000 0.73855  0.31118  0.91872  Biso   1.000  N
  N26      1.0000 0.76984  0.14430  0.23847  Biso   1.000  N
  N27      1.0000 0.80111  0.30177  0.91834  Biso   1.000  N
  N28      1.0000 0.83207  0.12726  0.24792  Biso   1.000  N
  N29      1.0000 0.86366  0.28378  0.93071  Biso   1.000  N
  N30      1.0000 0.89467  0.11383  0.25439  Biso   1.000  N
  N31      1.0000 0.92598  0.27913  0.92733  Biso   1.000  N
  N32      1.0000 0.95703  0.11922  0.24412  Biso   1.000  N
  N33      1.0000 0.98948  0.29152  0.90077  Biso   1.000  N
