data_image0
_cell_length_a       36.7743
_cell_length_b       2.14743
_cell_length_c       2.45713
_cell_angle_alpha    66.1465
_cell_angle_beta     92.3003
_cell_angle_gamma    90.052

_symmetry_space_group_name_H-M    "P 1"
_symmetry_int_tables_number       1

loop_
  _symmetry_equiv_pos_as_xyz
  'x, y, z'

loop_
  _atom_site_label
  _atom_site_occupancy
  _atom_site_fract_x
  _atom_site_fract_y
  _atom_site_fract_z
  _atom_site_thermal_displace_type
  _atom_site_B_iso_or_equiv
  _atom_site_type_symbol
  N1       1.0000 0.00983  0.78680  0.87004  Biso   1.000  N
  N2       1.0000 0.03864  0.62434  0.21448  Biso   1.000  N
  N3       1.0000 0.06646  0.77987  0.90587  Biso   1.000  N
  N4       1.0000 0.09514  0.62450  0.24772  Biso   1.000  N
  N5       1.0000 0.11715  0.19365  0.12053  Biso   1.000  N
  N6       1.0000 0.14585  0.02959  0.47152  Biso   1.000  N
  N7       1.0000 0.17347  0.18510  0.16621  Biso   1.000  N
  N8       1.0000 0.20148  0.01359  0.50430  Biso   1.000  N
  N9       1.0000 0.22865  0.17748  0.18569  Biso   1.000  N
  N10      1.0000 0.25676  0.00707  0.51666  Biso   1.000  N
  N11      1.0000 0.28507  0.17105  0.18888  Biso   1.000  N
  N12      1.0000 0.30676  0.60558  0.32982  Biso   1.000  N
  N13      1.0000 0.33513  0.76488  0.00708  Biso   1.000  N
  N14      1.0000 0.36316  0.59175  0.34403  Biso   1.000  N
  N15      1.0000 0.39045  0.74607  0.03629  Biso   1.000  N
  N16      1.0000 0.41842  0.56703  0.38386  Biso   1.000  N
  N17      1.0000 0.44600  0.71659  0.08550  Biso   1.000  N
  N18      1.0000 0.47385  0.53498  0.43490  Biso   1.000  N
  N19      1.0000 0.50130  0.69009  0.13088  Biso   1.000  N
  N20      1.0000 0.52917  0.51631  0.47215  Biso   1.000  N
  N21      1.0000 0.55769  0.67456  0.15575  Biso   1.000  N
  N22      1.0000 0.57941  0.10414  0.30927  Biso   1.000  N
  N23      1.0000 0.60809  0.25895  0.99859  Biso   1.000  N
  N24      1.0000 0.63574  0.07905  0.34512  Biso   1.000  N
  N25      1.0000 0.66341  0.22991  0.04894  Biso   1.000  N
  N26      1.0000 0.69102  0.04170  0.40620  Biso   1.000  N
  N27      1.0000 0.71873  0.19181  0.11267  Biso   1.000  N
  N28      1.0000 0.74637  0.01390  0.46117  Biso   1.000  N
  N29      1.0000 0.77504  0.16647  0.15217  Biso   1.000  N
  N30      1.0000 0.79689  0.59444  0.30362  Biso   1.000  N
  N31      1.0000 0.82529  0.74876  0.98760  Biso   1.000  N
  N32      1.0000 0.85336  0.57697  0.32534  Biso   1.000  N
  N33      1.0000 0.88153  0.72827  0.00841  Biso   1.000  N
  N34      1.0000 0.90393  0.15303  0.15671  Biso   1.000  N
  N35      1.0000 0.93194  0.30267  0.84088  Biso   1.000  N
  N36      1.0000 0.96021  0.13443  0.17830  Biso   1.000  N
  N37      1.0000 0.98860  0.28713  0.86785  Biso   1.000  N
