data_image0
_cell_length_a       30.7311
_cell_length_b       2.14539
_cell_length_c       2.47412
_cell_angle_alpha    65.9452
_cell_angle_beta     89.1045
_cell_angle_gamma    87.9281

_symmetry_space_group_name_H-M    "P 1"
_symmetry_int_tables_number       1

loop_
  _symmetry_equiv_pos_as_xyz
  'x, y, z'

loop_
  _atom_site_label
  _atom_site_occupancy
  _atom_site_fract_x
  _atom_site_fract_y
  _atom_site_fract_z
  _atom_site_thermal_displace_type
  _atom_site_B_iso_or_equiv
  _atom_site_type_symbol
  N1       1.0000 0.01551  0.81460  0.86346  Biso   1.000  N
  N2       1.0000 0.04979  0.63326  0.19779  Biso   1.000  N
  N3       1.0000 0.08279  0.78341  0.86948  Biso   1.000  N
  N4       1.0000 0.11727  0.60227  0.20183  Biso   1.000  N
  N5       1.0000 0.14294  0.15748  0.05170  Biso   1.000  N
  N6       1.0000 0.17759  0.95834  0.41708  Biso   1.000  N
  N7       1.0000 0.20300  0.51297  0.26811  Biso   1.000  N
  N8       1.0000 0.23777  0.32932  0.60412  Biso   1.000  N
  N9       1.0000 0.27060  0.48283  0.27737  Biso   1.000  N
  N10      1.0000 0.30384  0.30654  0.60028  Biso   1.000  N
  N11      1.0000 0.33674  0.46496  0.26804  Biso   1.000  N
  N12      1.0000 0.36994  0.28972  0.58479  Biso   1.000  N
  N13      1.0000 0.40429  0.44572  0.24186  Biso   1.000  N
  N14      1.0000 0.42987  0.87251  0.37329  Biso   1.000  N
  N15      1.0000 0.46424  0.02351  0.03548  Biso   1.000  N
  N16      1.0000 0.49734  0.84034  0.36005  Biso   1.000  N
  N17      1.0000 0.53043  0.98361  0.04299  Biso   1.000  N
  N18      1.0000 0.56349  0.79082  0.37983  Biso   1.000  N
  N19      1.0000 0.59682  0.92903  0.07080  Biso   1.000  N
  N20      1.0000 0.62986  0.73583  0.40721  Biso   1.000  N
  N21      1.0000 0.66295  0.87943  0.08998  Biso   1.000  N
  N22      1.0000 0.69613  0.69549  0.41433  Biso   1.000  N
  N23      1.0000 0.73032  0.84596  0.07878  Biso   1.000  N
  N24      1.0000 0.75628  0.26978  0.21821  Biso   1.000  N
  N25      1.0000 0.79054  0.41984  0.88589  Biso   1.000  N
  N26      1.0000 0.82382  0.23559  0.20697  Biso   1.000  N
  N27      1.0000 0.85651  0.38253  0.88381  Biso   1.000  N
  N28      1.0000 0.89009  0.19251  0.21222  Biso   1.000  N
  N29      1.0000 0.92270  0.34408  0.88926  Biso   1.000  N
  N30      1.0000 0.95613  0.16802  0.20796  Biso   1.000  N
  N31      1.0000 0.99041  0.32219  0.87205  Biso   1.000  N
