data_image0
_cell_length_a       32.5572
_cell_length_b       2.14029
_cell_length_c       2.47543
_cell_angle_alpha    65.8879
_cell_angle_beta     85.9121
_cell_angle_gamma    88.3107

_symmetry_space_group_name_H-M    "P 1"
_symmetry_int_tables_number       1

loop_
  _symmetry_equiv_pos_as_xyz
  'x, y, z'

loop_
  _atom_site_label
  _atom_site_occupancy
  _atom_site_fract_x
  _atom_site_fract_y
  _atom_site_fract_z
  _atom_site_thermal_displace_type
  _atom_site_B_iso_or_equiv
  _atom_site_type_symbol
  N1       1.0000 0.01304  0.74888  0.97840  Biso   1.000  N
  N2       1.0000 0.04554  0.58677  0.27526  Biso   1.000  N
  N3       1.0000 0.07716  0.74782  0.92288  Biso   1.000  N
  N4       1.0000 0.10909  0.59291  0.22117  Biso   1.000  N
  N5       1.0000 0.13467  0.16600  0.05995  Biso   1.000  N
  N6       1.0000 0.16636  0.01008  0.36171  Biso   1.000  N
  N7       1.0000 0.19821  0.17255  0.01236  Biso   1.000  N
  N8       1.0000 0.23049  0.00680  0.31535  Biso   1.000  N
  N9       1.0000 0.25490  0.57346  0.14792  Biso   1.000  N
  N10      1.0000 0.28766  0.38999  0.48343  Biso   1.000  N
  N11      1.0000 0.31177  0.95558  0.31634  Biso   1.000  N
  N12      1.0000 0.34431  0.77893  0.63114  Biso   1.000  N
  N13      1.0000 0.37574  0.93746  0.28383  Biso   1.000  N
  N14      1.0000 0.40682  0.76448  0.58638  Biso   1.000  N
  N15      1.0000 0.43834  0.92660  0.23402  Biso   1.000  N
  N16      1.0000 0.46942  0.75951  0.52998  Biso   1.000  N
  N17      1.0000 0.50222  0.92481  0.16469  Biso   1.000  N
  N18      1.0000 0.52637  0.36107  0.28026  Biso   1.000  N
  N19      1.0000 0.55904  0.52572  0.91468  Biso   1.000  N
  N20      1.0000 0.59024  0.35896  0.20942  Biso   1.000  N
  N21      1.0000 0.62173  0.51894  0.85899  Biso   1.000  N
  N22      1.0000 0.65270  0.34465  0.16402  Biso   1.000  N
  N23      1.0000 0.68450  0.49809  0.82489  Biso   1.000  N
  N24      1.0000 0.71648  0.32282  0.14201  Biso   1.000  N
  N25      1.0000 0.74117  0.87894  0.99606  Biso   1.000  N
  N26      1.0000 0.77304  0.70632  0.31060  Biso   1.000  N
  N27      1.0000 0.80504  0.86201  0.96825  Biso   1.000  N
  N28      1.0000 0.83670  0.68921  0.28246  Biso   1.000  N
  N29      1.0000 0.86171  0.25089  0.12311  Biso   1.000  N
  N30      1.0000 0.89406  0.08108  0.42866  Biso   1.000  N
  N31      1.0000 0.92549  0.24369  0.07570  Biso   1.000  N
  N32      1.0000 0.95665  0.07845  0.37082  Biso   1.000  N
  N33      1.0000 0.98931  0.24902  0.00028  Biso   1.000  N
