data_image0
_cell_length_a       33.656
_cell_length_b       2.14562
_cell_length_c       2.47151
_cell_angle_alpha    65.6877
_cell_angle_beta     90.4139
_cell_angle_gamma    90.2094

_symmetry_space_group_name_H-M    "P 1"
_symmetry_int_tables_number       1

loop_
  _symmetry_equiv_pos_as_xyz
  'x, y, z'

loop_
  _atom_site_label
  _atom_site_occupancy
  _atom_site_fract_x
  _atom_site_fract_y
  _atom_site_fract_z
  _atom_site_thermal_displace_type
  _atom_site_B_iso_or_equiv
  _atom_site_type_symbol
  N1       1.0000 0.01043  0.71066  0.06745  Biso   1.000  N
  N2       1.0000 0.04207  0.54806  0.39280  Biso   1.000  N
  N3       1.0000 0.07198  0.71789  0.06424  Biso   1.000  N
  N4       1.0000 0.10240  0.55811  0.37629  Biso   1.000  N
  N5       1.0000 0.13231  0.73820  0.03772  Biso   1.000  N
  N6       1.0000 0.16270  0.57832  0.35003  Biso   1.000  N
  N7       1.0000 0.19277  0.74708  0.02465  Biso   1.000  N
  N8       1.0000 0.22409  0.58079  0.35733  Biso   1.000  N
  N9       1.0000 0.24770  0.14350  0.22276  Biso   1.000  N
  N10      1.0000 0.27898  0.97362  0.56309  Biso   1.000  N
  N11      1.0000 0.30925  0.13501  0.24706  Biso   1.000  N
  N12      1.0000 0.33941  0.96544  0.57765  Biso   1.000  N
  N13      1.0000 0.36954  0.13100  0.25363  Biso   1.000  N
  N14      1.0000 0.39979  0.96598  0.57684  Biso   1.000  N
  N15      1.0000 0.43112  0.13167  0.24432  Biso   1.000  N
  N16      1.0000 0.45473  0.57204  0.37717  Biso   1.000  N
  N17      1.0000 0.48568  0.74034  0.04107  Biso   1.000  N
  N18      1.0000 0.51605  0.57136  0.36310  Biso   1.000  N
  N19      1.0000 0.54602  0.73273  0.04098  Biso   1.000  N
  N20      1.0000 0.57629  0.56344  0.36608  Biso   1.000  N
  N21      1.0000 0.60743  0.72473  0.03486  Biso   1.000  N
  N22      1.0000 0.63095  0.16076  0.16774  Biso   1.000  N
  N23      1.0000 0.66268  0.30420  0.85233  Biso   1.000  N
  N24      1.0000 0.69383  0.14483  0.19080  Biso   1.000  N
  N25      1.0000 0.71733  0.70537  0.07102  Biso   1.000  N
  N26      1.0000 0.74843  0.54400  0.40975  Biso   1.000  N
  N27      1.0000 0.78010  0.69689  0.09005  Biso   1.000  N
  N28      1.0000 0.80353  0.13578  0.22225  Biso   1.000  N
  N29      1.0000 0.83462  0.30621  0.88071  Biso   1.000  N
  N30      1.0000 0.86505  0.14667  0.19813  Biso   1.000  N
  N31      1.0000 0.89501  0.31641  0.86791  Biso   1.000  N
  N32      1.0000 0.92541  0.15013  0.19208  Biso   1.000  N
  N33      1.0000 0.95547  0.31399  0.87013  Biso   1.000  N
  N34      1.0000 0.98685  0.14480  0.20796  Biso   1.000  N
