data_image0
_cell_length_a       35.6192
_cell_length_b       2.17694
_cell_length_c       2.449
_cell_angle_alpha    63.6148
_cell_angle_beta     90.6794
_cell_angle_gamma    89.2364

_symmetry_space_group_name_H-M    "P 1"
_symmetry_int_tables_number       1

loop_
  _symmetry_equiv_pos_as_xyz
  'x, y, z'

loop_
  _atom_site_label
  _atom_site_occupancy
  _atom_site_fract_x
  _atom_site_fract_y
  _atom_site_fract_z
  _atom_site_thermal_displace_type
  _atom_site_B_iso_or_equiv
  _atom_site_type_symbol
  N1       1.0000 0.00967  0.76389  0.01442  Biso   1.000  N
  N2       1.0000 0.03965  0.59385  0.35549  Biso   1.000  N
  N3       1.0000 0.06837  0.76218  0.03873  Biso   1.000  N
  N4       1.0000 0.09729  0.63122  0.36026  Biso   1.000  N
  N5       1.0000 0.12591  0.81285  0.04110  Biso   1.000  N
  N6       1.0000 0.15515  0.68355  0.35914  Biso   1.000  N
  N7       1.0000 0.18359  0.86662  0.03995  Biso   1.000  N
  N8       1.0000 0.21287  0.73851  0.36097  Biso   1.000  N
  N9       1.0000 0.24116  0.92685  0.04230  Biso   1.000  N
  N10      1.0000 0.27051  0.80592  0.36054  Biso   1.000  N
  N11      1.0000 0.29889  0.99902  0.04017  Biso   1.000  N
  N12      1.0000 0.32805  0.88514  0.35632  Biso   1.000  N
  N13      1.0000 0.35647  0.07972  0.03393  Biso   1.000  N
  N14      1.0000 0.38562  0.96052  0.35203  Biso   1.000  N
  N15      1.0000 0.41416  0.14605  0.03612  Biso   1.000  N
  N16      1.0000 0.44328  0.00738  0.36225  Biso   1.000  N
  N17      1.0000 0.47195  0.17819  0.05049  Biso   1.000  N
  N18      1.0000 0.50100  0.02156  0.37695  Biso   1.000  N
  N19      1.0000 0.52987  0.17455  0.06246  Biso   1.000  N
  N20      1.0000 0.55877  0.99861  0.38613  Biso   1.000  N
  N21      1.0000 0.58771  0.13370  0.07244  Biso   1.000  N
  N22      1.0000 0.61647  0.93830  0.40282  Biso   1.000  N
  N23      1.0000 0.64552  0.04911  0.09917  Biso   1.000  N
  N24      1.0000 0.67423  0.83789  0.43614  Biso   1.000  N
  N25      1.0000 0.70297  0.93893  0.13190  Biso   1.000  N
  N26      1.0000 0.73197  0.73788  0.46227  Biso   1.000  N
  N27      1.0000 0.76149  0.88341  0.13456  Biso   1.000  N
  N28      1.0000 0.78402  0.30730  0.26767  Biso   1.000  N
  N29      1.0000 0.81354  0.45349  0.94131  Biso   1.000  N
  N30      1.0000 0.84261  0.26154  0.27253  Biso   1.000  N
  N31      1.0000 0.87150  0.37372  0.96984  Biso   1.000  N
  N32      1.0000 0.90032  0.17476  0.30735  Biso   1.000  N
  N33      1.0000 0.92921  0.29860  0.00228  Biso   1.000  N
  N34      1.0000 0.95818  0.11771  0.33406  Biso   1.000  N
  N35      1.0000 0.98803  0.26999  0.01089  Biso   1.000  N
