data_image0
_cell_length_a       28.5908
_cell_length_b       2.14667
_cell_length_c       2.47243
_cell_angle_alpha    65.7295
_cell_angle_beta     86.9328
_cell_angle_gamma    90.0146

_symmetry_space_group_name_H-M    "P 1"
_symmetry_int_tables_number       1

loop_
  _symmetry_equiv_pos_as_xyz
  'x, y, z'

loop_
  _atom_site_label
  _atom_site_occupancy
  _atom_site_fract_x
  _atom_site_fract_y
  _atom_site_fract_z
  _atom_site_thermal_displace_type
  _atom_site_B_iso_or_equiv
  _atom_site_type_symbol
  N1       1.0000 0.01509  0.74161  0.02359  Biso   1.000  N
  N2       1.0000 0.05170  0.58271  0.33923  Biso   1.000  N
  N3       1.0000 0.08769  0.75385  0.99602  Biso   1.000  N
  N4       1.0000 0.12406  0.59331  0.31622  Biso   1.000  N
  N5       1.0000 0.15210  0.16168  0.16907  Biso   1.000  N
  N6       1.0000 0.18854  0.99943  0.48919  Biso   1.000  N
  N7       1.0000 0.22449  0.17291  0.15034  Biso   1.000  N
  N8       1.0000 0.25970  0.01732  0.45346  Biso   1.000  N
  N9       1.0000 0.29668  0.19890  0.09295  Biso   1.000  N
  N10      1.0000 0.32450  0.64449  0.21167  Biso   1.000  N
  N11      1.0000 0.36150  0.81762  0.85817  Biso   1.000  N
  N12      1.0000 0.39845  0.66813  0.16447  Biso   1.000  N
  N13      1.0000 0.42615  0.23648  0.01937  Biso   1.000  N
  N14      1.0000 0.46279  0.08097  0.33570  Biso   1.000  N
  N15      1.0000 0.49863  0.25464  0.99117  Biso   1.000  N
  N16      1.0000 0.53525  0.09979  0.30337  Biso   1.000  N
  N17      1.0000 0.56349  0.67476  0.14458  Biso   1.000  N
  N18      1.0000 0.60019  0.52192  0.44947  Biso   1.000  N
  N19      1.0000 0.63604  0.70261  0.09881  Biso   1.000  N
  N20      1.0000 0.67159  0.55445  0.38904  Biso   1.000  N
  N21      1.0000 0.70729  0.74513  0.02762  Biso   1.000  N
  N22      1.0000 0.74263  0.59372  0.32049  Biso   1.000  N
  N23      1.0000 0.77862  0.77222  0.97162  Biso   1.000  N
  N24      1.0000 0.81512  0.61479  0.28124  Biso   1.000  N
  N25      1.0000 0.84317  0.18754  0.12397  Biso   1.000  N
  N26      1.0000 0.87988  0.02697  0.43936  Biso   1.000  N
  N27      1.0000 0.91558  0.20438  0.09259  Biso   1.000  N
  N28      1.0000 0.95078  0.05235  0.39321  Biso   1.000  N
  N29      1.0000 0.98832  0.23783  0.02899  Biso   1.000  N
