data_image0
_cell_length_a       23.6068
_cell_length_b       2.15756
_cell_length_c       2.47325
_cell_angle_alpha    65.571
_cell_angle_beta     88.0297
_cell_angle_gamma    87.4492

_symmetry_space_group_name_H-M    "P 1"
_symmetry_int_tables_number       1

loop_
  _symmetry_equiv_pos_as_xyz
  'x, y, z'

loop_
  _atom_site_label
  _atom_site_occupancy
  _atom_site_fract_x
  _atom_site_fract_y
  _atom_site_fract_z
  _atom_site_thermal_displace_type
  _atom_site_B_iso_or_equiv
  _atom_site_type_symbol
  N1       1.0000 0.01772  0.73301  0.97262  Biso   1.000  N
  N2       1.0000 0.06201  0.55330  0.29960  Biso   1.000  N
  N3       1.0000 0.10558  0.71724  0.96312  Biso   1.000  N
  N4       1.0000 0.14802  0.55237  0.27720  Biso   1.000  N
  N5       1.0000 0.19144  0.71625  0.93915  Biso   1.000  N
  N6       1.0000 0.23606  0.53370  0.26805  Biso   1.000  N
  N7       1.0000 0.26939  0.08821  0.11458  Biso   1.000  N
  N8       1.0000 0.31465  0.88962  0.47139  Biso   1.000  N
  N9       1.0000 0.34775  0.44485  0.31592  Biso   1.000  N
  N10      1.0000 0.39275  0.25530  0.64913  Biso   1.000  N
  N11      1.0000 0.43557  0.40677  0.31587  Biso   1.000  N
  N12      1.0000 0.47844  0.22517  0.63269  Biso   1.000  N
  N13      1.0000 0.52323  0.37613  0.28976  Biso   1.000  N
  N14      1.0000 0.55712  0.79809  0.42250  Biso   1.000  N
  N15      1.0000 0.60124  0.94705  0.07577  Biso   1.000  N
  N16      1.0000 0.64481  0.75212  0.38914  Biso   1.000  N
  N17      1.0000 0.68719  0.88725  0.05307  Biso   1.000  N
  N18      1.0000 0.73075  0.69066  0.36712  Biso   1.000  N
  N19      1.0000 0.77480  0.83826  0.01927  Biso   1.000  N
  N20      1.0000 0.80872  0.26134  0.14751  Biso   1.000  N
  N21      1.0000 0.85331  0.40974  0.80160  Biso   1.000  N
  N22      1.0000 0.89634  0.22217  0.11725  Biso   1.000  N
  N23      1.0000 0.93918  0.36880  0.78417  Biso   1.000  N
  N24      1.0000 0.98391  0.18261  0.11353  Biso   1.000  N
