data_image0
_cell_length_a       27.5559
_cell_length_b       2.1571
_cell_length_c       2.46807
_cell_angle_alpha    65.8637
_cell_angle_beta     85.8414
_cell_angle_gamma    90.0373

_symmetry_space_group_name_H-M    "P 1"
_symmetry_int_tables_number       1

loop_
  _symmetry_equiv_pos_as_xyz
  'x, y, z'

loop_
  _atom_site_label
  _atom_site_occupancy
  _atom_site_fract_x
  _atom_site_fract_y
  _atom_site_fract_z
  _atom_site_thermal_displace_type
  _atom_site_B_iso_or_equiv
  _atom_site_type_symbol
  N1       1.0000 0.01619  0.66783  0.20102  Biso   1.000  N
  N2       1.0000 0.05460  0.50110  0.53356  Biso   1.000  N
  N3       1.0000 0.08320  0.07503  0.36603  Biso   1.000  N
  N4       1.0000 0.12143  0.92231  0.66651  Biso   1.000  N
  N5       1.0000 0.15968  0.10081  0.30217  Biso   1.000  N
  N6       1.0000 0.18844  0.55219  0.41078  Biso   1.000  N
  N7       1.0000 0.22690  0.73373  0.04027  Biso   1.000  N
  N8       1.0000 0.26344  0.57724  0.33105  Biso   1.000  N
  N9       1.0000 0.30064  0.75429  0.97399  Biso   1.000  N
  N10      1.0000 0.33735  0.59764  0.26757  Biso   1.000  N
  N11      1.0000 0.37473  0.77471  0.91805  Biso   1.000  N
  N12      1.0000 0.41122  0.61800  0.22000  Biso   1.000  N
  N13      1.0000 0.44841  0.79713  0.87249  Biso   1.000  N
  N14      1.0000 0.48638  0.64301  0.18044  Biso   1.000  N
  N15      1.0000 0.51533  0.21452  0.02423  Biso   1.000  N
  N16      1.0000 0.55315  0.06344  0.32862  Biso   1.000  N
  N17      1.0000 0.59031  0.24669  0.97516  Biso   1.000  N
  N18      1.0000 0.62699  0.10295  0.26438  Biso   1.000  N
  N19      1.0000 0.66413  0.28780  0.90714  Biso   1.000  N
  N20      1.0000 0.70204  0.14585  0.20351  Biso   1.000  N
  N21      1.0000 0.73134  0.72524  0.04396  Biso   1.000  N
  N22      1.0000 0.76939  0.58876  0.33733  Biso   1.000  N
  N23      1.0000 0.80687  0.77038  0.98100  Biso   1.000  N
  N24      1.0000 0.84464  0.62983  0.27695  Biso   1.000  N
  N25      1.0000 0.87439  0.21100  0.11624  Biso   1.000  N
  N26      1.0000 0.91192  0.06400  0.42115  Biso   1.000  N
  N27      1.0000 0.94935  0.24353  0.06630  Biso   1.000  N
  N28      1.0000 0.98754  0.09097  0.37011  Biso   1.000  N
