data_image0
_cell_length_a       24.7085
_cell_length_b       2.15116
_cell_length_c       2.47449
_cell_angle_alpha    65.5306
_cell_angle_beta     93.3784
_cell_angle_gamma    87.4759

_symmetry_space_group_name_H-M    "P 1"
_symmetry_int_tables_number       1

loop_
  _symmetry_equiv_pos_as_xyz
  'x, y, z'

loop_
  _atom_site_label
  _atom_site_occupancy
  _atom_site_fract_x
  _atom_site_fract_y
  _atom_site_fract_z
  _atom_site_thermal_displace_type
  _atom_site_B_iso_or_equiv
  _atom_site_type_symbol
  N1       1.0000 0.01239  0.77700  0.96188  Biso   1.000  N
  N2       1.0000 0.05545  0.56860  0.33790  Biso   1.000  N
  N3       1.0000 0.09683  0.69312  0.05260  Biso   1.000  N
  N4       1.0000 0.13806  0.48662  0.41884  Biso   1.000  N
  N5       1.0000 0.17920  0.61565  0.12701  Biso   1.000  N
  N6       1.0000 0.22106  0.41511  0.47946  Biso   1.000  N
  N7       1.0000 0.26335  0.54670  0.17348  Biso   1.000  N
  N8       1.0000 0.29588  0.95730  0.32980  Biso   1.000  N
  N9       1.0000 0.33804  0.08731  0.02611  Biso   1.000  N
  N10      1.0000 0.38008  0.88496  0.38016  Biso   1.000  N
  N11      1.0000 0.42205  0.01200  0.07650  Biso   1.000  N
  N12      1.0000 0.45505  0.41846  0.23962  Biso   1.000  N
  N13      1.0000 0.49727  0.54516  0.94268  Biso   1.000  N
  N14      1.0000 0.53914  0.34099  0.29847  Biso   1.000  N
  N15      1.0000 0.58018  0.46419  0.01478  Biso   1.000  N
  N16      1.0000 0.62160  0.24891  0.38362  Biso   1.000  N
  N17      1.0000 0.66270  0.37034  0.10110  Biso   1.000  N
  N18      1.0000 0.70444  0.16443  0.45865  Biso   1.000  N
  N19      1.0000 0.74677  0.29153  0.16249  Biso   1.000  N
  N20      1.0000 0.77967  0.70125  0.32235  Biso   1.000  N
  N21      1.0000 0.82158  0.83214  0.01586  Biso   1.000  N
  N22      1.0000 0.86353  0.63190  0.36982  Biso   1.000  N
  N23      1.0000 0.90597  0.76677  0.06361  Biso   1.000  N
  N24      1.0000 0.93801  0.17163  0.23714  Biso   1.000  N
  N25      1.0000 0.98167  0.32044  0.90107  Biso   1.000  N
