data_image0
_cell_length_a       35.4696
_cell_length_b       2.18769
_cell_length_c       2.44565
_cell_angle_alpha    63.5444
_cell_angle_beta     91.0614
_cell_angle_gamma    89.995

_symmetry_space_group_name_H-M    "P 1"
_symmetry_int_tables_number       1

loop_
  _symmetry_equiv_pos_as_xyz
  'x, y, z'

loop_
  _atom_site_label
  _atom_site_occupancy
  _atom_site_fract_x
  _atom_site_fract_y
  _atom_site_fract_z
  _atom_site_thermal_displace_type
  _atom_site_B_iso_or_equiv
  _atom_site_type_symbol
  N1       1.0000 0.01019  0.78930  0.03830  Biso   1.000  N
  N2       1.0000 0.04056  0.63636  0.37679  Biso   1.000  N
  N3       1.0000 0.06893  0.84068  0.05266  Biso   1.000  N
  N4       1.0000 0.09803  0.78530  0.36000  Biso   1.000  N
  N5       1.0000 0.12601  0.01332  0.02854  Biso   1.000  N
  N6       1.0000 0.15549  0.96004  0.33296  Biso   1.000  N
  N7       1.0000 0.18326  0.18893  0.00232  Biso   1.000  N
  N8       1.0000 0.21265  0.12797  0.31326  Biso   1.000  N
  N9       1.0000 0.24072  0.34921  0.99087  Biso   1.000  N
  N10      1.0000 0.27013  0.26229  0.30723  Biso   1.000  N
  N11      1.0000 0.29848  0.46818  0.98520  Biso   1.000  N
  N12      1.0000 0.32781  0.34519  0.30317  Biso   1.000  N
  N13      1.0000 0.35652  0.51555  0.98110  Biso   1.000  N
  N14      1.0000 0.38572  0.34026  0.30468  Biso   1.000  N
  N15      1.0000 0.41459  0.46461  0.99431  Biso   1.000  N
  N16      1.0000 0.44351  0.25260  0.32738  Biso   1.000  N
  N17      1.0000 0.47241  0.33997  0.02397  Biso   1.000  N
  N18      1.0000 0.50094  0.10879  0.35984  Biso   1.000  N
  N19      1.0000 0.52996  0.18194  0.05703  Biso   1.000  N
  N20      1.0000 0.55838  0.94973  0.38966  Biso   1.000  N
  N21      1.0000 0.58750  0.02222  0.08722  Biso   1.000  N
  N22      1.0000 0.61580  0.79189  0.42585  Biso   1.000  N
  N23      1.0000 0.64500  0.86562  0.12919  Biso   1.000  N
  N24      1.0000 0.67357  0.64531  0.47079  Biso   1.000  N
  N25      1.0000 0.70248  0.73645  0.16942  Biso   1.000  N
  N26      1.0000 0.73149  0.54040  0.50134  Biso   1.000  N
  N27      1.0000 0.76116  0.69528  0.17245  Biso   1.000  N
  N28      1.0000 0.78379  0.12633  0.30765  Biso   1.000  N
  N29      1.0000 0.81338  0.28721  0.97951  Biso   1.000  N
  N30      1.0000 0.84256  0.11893  0.30985  Biso   1.000  N
  N31      1.0000 0.87162  0.27320  0.00556  Biso   1.000  N
  N32      1.0000 0.90057  0.10885  0.34260  Biso   1.000  N
  N33      1.0000 0.92957  0.27550  0.03618  Biso   1.000  N
  N34      1.0000 0.95865  0.11839  0.36657  Biso   1.000  N
  N35      1.0000 0.98857  0.28669  0.04157  Biso   1.000  N
