data_image0
_cell_length_a       32.8002
_cell_length_b       2.17444
_cell_length_c       2.4491
_cell_angle_alpha    63.6223
_cell_angle_beta     86.9443
_cell_angle_gamma    83.1962

_symmetry_space_group_name_H-M    "P 1"
_symmetry_int_tables_number       1

loop_
  _symmetry_equiv_pos_as_xyz
  'x, y, z'

loop_
  _atom_site_label
  _atom_site_occupancy
  _atom_site_fract_x
  _atom_site_fract_y
  _atom_site_fract_z
  _atom_site_thermal_displace_type
  _atom_site_B_iso_or_equiv
  _atom_site_type_symbol
  N1       1.0000 0.01641  0.95870  0.03505  Biso   1.000  N
  N2       1.0000 0.04798  0.74918  0.35207  Biso   1.000  N
  N3       1.0000 0.07946  0.86132  0.02959  Biso   1.000  N
  N4       1.0000 0.11126  0.65236  0.34861  Biso   1.000  N
  N5       1.0000 0.14269  0.76303  0.02793  Biso   1.000  N
  N6       1.0000 0.17442  0.55293  0.34599  Biso   1.000  N
  N7       1.0000 0.20585  0.66321  0.01996  Biso   1.000  N
  N8       1.0000 0.23771  0.45633  0.33208  Biso   1.000  N
  N9       1.0000 0.26923  0.57129  0.00437  Biso   1.000  N
  N10      1.0000 0.30085  0.37087  0.31797  Biso   1.000  N
  N11      1.0000 0.33246  0.48534  0.99383  Biso   1.000  N
  N12      1.0000 0.36497  0.26722  0.32837  Biso   1.000  N
  N13      1.0000 0.38942  0.79125  0.20127  Biso   1.000  N
  N14      1.0000 0.42197  0.57307  0.53175  Biso   1.000  N
  N15      1.0000 0.45457  0.68321  0.20071  Biso   1.000  N
  N16      1.0000 0.47898  0.07780  0.32772  Biso   1.000  N
  N17      1.0000 0.51154  0.18473  0.99308  Biso   1.000  N
  N18      1.0000 0.54308  0.95228  0.31737  Biso   1.000  N
  N19      1.0000 0.57474  0.02746  0.00461  Biso   1.000  N
  N20      1.0000 0.60614  0.78409  0.33335  Biso   1.000  N
  N21      1.0000 0.63802  0.85438  0.02216  Biso   1.000  N
  N22      1.0000 0.66933  0.60940  0.34868  Biso   1.000  N
  N23      1.0000 0.70105  0.68066  0.03093  Biso   1.000  N
  N24      1.0000 0.73238  0.43514  0.35136  Biso   1.000  N
  N25      1.0000 0.76416  0.50812  0.03211  Biso   1.000  N
  N26      1.0000 0.79554  0.26439  0.35451  Biso   1.000  N
  N27      1.0000 0.82710  0.34236  0.03704  Biso   1.000  N
  N28      1.0000 0.85861  0.10551  0.36185  Biso   1.000  N
  N29      1.0000 0.89021  0.19376  0.04443  Biso   1.000  N
  N30      1.0000 0.92172  0.96609  0.36621  Biso   1.000  N
  N31      1.0000 0.95327  0.06558  0.04417  Biso   1.000  N
  N32      1.0000 0.98486  0.84891  0.36085  Biso   1.000  N
