data_image0
_cell_length_a       30.6519
_cell_length_b       2.21115
_cell_length_c       2.43848
_cell_angle_alpha    63.1432
_cell_angle_beta     89.6379
_cell_angle_gamma    90.2468

_symmetry_space_group_name_H-M    "P 1"
_symmetry_int_tables_number       1

loop_
  _symmetry_equiv_pos_as_xyz
  'x, y, z'

loop_
  _atom_site_label
  _atom_site_occupancy
  _atom_site_fract_x
  _atom_site_fract_y
  _atom_site_fract_z
  _atom_site_thermal_displace_type
  _atom_site_B_iso_or_equiv
  _atom_site_type_symbol
  N1       1.0000 0.01649  0.97399  0.10099  Biso   1.000  N
  N2       1.0000 0.04940  0.77471  0.42827  Biso   1.000  N
  N3       1.0000 0.08328  0.90155  0.10942  Biso   1.000  N
  N4       1.0000 0.11648  0.72973  0.43334  Biso   1.000  N
  N5       1.0000 0.15024  0.89269  0.11083  Biso   1.000  N
  N6       1.0000 0.18363  0.75722  0.43136  Biso   1.000  N
  N7       1.0000 0.21709  0.95476  0.10492  Biso   1.000  N
  N8       1.0000 0.25061  0.85842  0.41824  Biso   1.000  N
  N9       1.0000 0.28358  0.08251  0.08519  Biso   1.000  N
  N10      1.0000 0.31723  0.01789  0.38889  Biso   1.000  N
  N11      1.0000 0.34980  0.25686  0.04918  Biso   1.000  N
  N12      1.0000 0.38351  0.20451  0.34816  Biso   1.000  N
  N13      1.0000 0.41609  0.44297  0.00870  Biso   1.000  N
  N14      1.0000 0.44973  0.37709  0.31276  Biso   1.000  N
  N15      1.0000 0.48273  0.59989  0.98020  Biso   1.000  N
  N16      1.0000 0.51625  0.50144  0.29390  Biso   1.000  N
  N17      1.0000 0.54973  0.69696  0.96797  Biso   1.000  N
  N18      1.0000 0.58311  0.55917  0.28859  Biso   1.000  N
  N19      1.0000 0.61688  0.71966  0.96655  Biso   1.000  N
  N20      1.0000 0.65007  0.54578  0.29063  Biso   1.000  N
  N21      1.0000 0.68395  0.67020  0.97247  Biso   1.000  N
  N22      1.0000 0.71684  0.46962  0.30003  Biso   1.000  N
  N23      1.0000 0.75081  0.56317  0.98785  Biso   1.000  N
  N24      1.0000 0.78332  0.34513  0.32063  Biso   1.000  N
  N25      1.0000 0.81737  0.41622  0.01528  Biso   1.000  N
  N26      1.0000 0.84961  0.18847  0.35258  Biso   1.000  N
  N27      1.0000 0.88370  0.25119  0.05028  Biso   1.000  N
  N28      1.0000 0.91595  0.02375  0.38734  Biso   1.000  N
  N29      1.0000 0.94999  0.09587  0.08155  Biso   1.000  N
  N30      1.0000 0.98253  0.87860  0.41388  Biso   1.000  N
