data_image0
_cell_length_a       32.6454
_cell_length_b       2.15069
_cell_length_c       2.46138
_cell_angle_alpha    65.718
_cell_angle_beta     90.9907
_cell_angle_gamma    90.0378

_symmetry_space_group_name_H-M    "P 1"
_symmetry_int_tables_number       1

loop_
  _symmetry_equiv_pos_as_xyz
  'x, y, z'

loop_
  _atom_site_label
  _atom_site_occupancy
  _atom_site_fract_x
  _atom_site_fract_y
  _atom_site_fract_z
  _atom_site_thermal_displace_type
  _atom_site_B_iso_or_equiv
  _atom_site_type_symbol
  N1       1.0000 0.01023  0.76799  0.94341  Biso   1.000  N
  N2       1.0000 0.04281  0.59765  0.28261  Biso   1.000  N
  N3       1.0000 0.07376  0.75957  0.96252  Biso   1.000  N
  N4       1.0000 0.10501  0.59600  0.28458  Biso   1.000  N
  N5       1.0000 0.13601  0.77126  0.95480  Biso   1.000  N
  N6       1.0000 0.16726  0.61162  0.27722  Biso   1.000  N
  N7       1.0000 0.19827  0.78041  0.95637  Biso   1.000  N
  N8       1.0000 0.23059  0.61328  0.29300  Biso   1.000  N
  N9       1.0000 0.25513  0.17391  0.16034  Biso   1.000  N
  N10      1.0000 0.28723  0.00189  0.50736  Biso   1.000  N
  N11      1.0000 0.31856  0.16347  0.19589  Biso   1.000  N
  N12      1.0000 0.34960  0.99286  0.53258  Biso   1.000  N
  N13      1.0000 0.38059  0.15879  0.21178  Biso   1.000  N
  N14      1.0000 0.41213  0.99463  0.53550  Biso   1.000  N
  N15      1.0000 0.44397  0.15870  0.20236  Biso   1.000  N
  N16      1.0000 0.46876  0.59100  0.34103  Biso   1.000  N
  N17      1.0000 0.50063  0.75138  0.01281  Biso   1.000  N
  N18      1.0000 0.53228  0.58765  0.33977  Biso   1.000  N
  N19      1.0000 0.56425  0.74185  0.01282  Biso   1.000  N
  N20      1.0000 0.58883  0.16824  0.15266  Biso   1.000  N
  N21      1.0000 0.62126  0.31174  0.83895  Biso   1.000  N
  N22      1.0000 0.65333  0.15075  0.18003  Biso   1.000  N
  N23      1.0000 0.67785  0.70849  0.06308  Biso   1.000  N
  N24      1.0000 0.70940  0.53415  0.42034  Biso   1.000  N
  N25      1.0000 0.74122  0.69078  0.11998  Biso   1.000  N
  N26      1.0000 0.77182  0.51645  0.46324  Biso   1.000  N
  N27      1.0000 0.80312  0.68133  0.14804  Biso   1.000  N
  N28      1.0000 0.83445  0.51516  0.47426  Biso   1.000  N
  N29      1.0000 0.86633  0.67730  0.14439  Biso   1.000  N
  N30      1.0000 0.89124  0.10857  0.28212  Biso   1.000  N
  N31      1.0000 0.92287  0.26820  0.95202  Biso   1.000  N
  N32      1.0000 0.95466  0.10344  0.27780  Biso   1.000  N
  N33      1.0000 0.98656  0.26400  0.95135  Biso   1.000  N
