data_image0
_cell_length_a       36.4854
_cell_length_b       2.15764
_cell_length_c       2.4709
_cell_angle_alpha    65.5835
_cell_angle_beta     91.0726
_cell_angle_gamma    88.6178

_symmetry_space_group_name_H-M    "P 1"
_symmetry_int_tables_number       1

loop_
  _symmetry_equiv_pos_as_xyz
  'x, y, z'

loop_
  _atom_site_label
  _atom_site_occupancy
  _atom_site_fract_x
  _atom_site_fract_y
  _atom_site_fract_z
  _atom_site_thermal_displace_type
  _atom_site_B_iso_or_equiv
  _atom_site_type_symbol
  N1       1.0000 0.00769  0.73727  0.06669  Biso   1.000  N
  N2       1.0000 0.03689  0.54722  0.41534  Biso   1.000  N
  N3       1.0000 0.06465  0.68958  0.10667  Biso   1.000  N
  N4       1.0000 0.09241  0.49983  0.44744  Biso   1.000  N
  N5       1.0000 0.12039  0.64357  0.13844  Biso   1.000  N
  N6       1.0000 0.14827  0.45456  0.47707  Biso   1.000  N
  N7       1.0000 0.17616  0.59632  0.16656  Biso   1.000  N
  N8       1.0000 0.20388  0.40576  0.50544  Biso   1.000  N
  N9       1.0000 0.23283  0.55153  0.18634  Biso   1.000  N
  N10      1.0000 0.25465  0.97480  0.33337  Biso   1.000  N
  N11      1.0000 0.28342  0.12024  0.01406  Biso   1.000  N
  N12      1.0000 0.31138  0.92794  0.35506  Biso   1.000  N
  N13      1.0000 0.33913  0.06442  0.04956  Biso   1.000  N
  N14      1.0000 0.36708  0.87091  0.39240  Biso   1.000  N
  N15      1.0000 0.39583  0.01135  0.07572  Biso   1.000  N
  N16      1.0000 0.41781  0.43457  0.21807  Biso   1.000  N
  N17      1.0000 0.44648  0.57535  0.90070  Biso   1.000  N
  N18      1.0000 0.47454  0.38282  0.24118  Biso   1.000  N
  N19      1.0000 0.50200  0.52601  0.92940  Biso   1.000  N
  N20      1.0000 0.53021  0.33838  0.26353  Biso   1.000  N
  N21      1.0000 0.55864  0.49048  0.93791  Biso   1.000  N
  N22      1.0000 0.58059  0.91408  0.08317  Biso   1.000  N
  N23      1.0000 0.60934  0.06753  0.75636  Biso   1.000  N
  N24      1.0000 0.63718  0.88463  0.09022  Biso   1.000  N
  N25      1.0000 0.66482  0.03425  0.77539  Biso   1.000  N
  N26      1.0000 0.69392  0.84229  0.12809  Biso   1.000  N
  N27      1.0000 0.71540  0.39487  0.98822  Biso   1.000  N
  N28      1.0000 0.74454  0.19044  0.37126  Biso   1.000  N
  N29      1.0000 0.76603  0.74270  0.23083  Biso   1.000  N
  N30      1.0000 0.79518  0.55228  0.58061  Biso   1.000  N
  N31      1.0000 0.82270  0.70703  0.26235  Biso   1.000  N
  N32      1.0000 0.85081  0.53019  0.58996  Biso   1.000  N
  N33      1.0000 0.87927  0.68902  0.25773  Biso   1.000  N
  N34      1.0000 0.90145  0.11454  0.40002  Biso   1.000  N
  N35      1.0000 0.92973  0.27029  0.06795  Biso   1.000  N
  N36      1.0000 0.95804  0.09207  0.39875  Biso   1.000  N
  N37      1.0000 0.98667  0.24338  0.07311  Biso   1.000  N
