data_image0
_cell_length_a       38.4799
_cell_length_b       2.17027
_cell_length_c       2.45146
_cell_angle_alpha    63.7628
_cell_angle_beta     87.3662
_cell_angle_gamma    87.1828

_symmetry_space_group_name_H-M    "P 1"
_symmetry_int_tables_number       1

loop_
  _symmetry_equiv_pos_as_xyz
  'x, y, z'

loop_
  _atom_site_label
  _atom_site_occupancy
  _atom_site_fract_x
  _atom_site_fract_y
  _atom_site_fract_z
  _atom_site_thermal_displace_type
  _atom_site_B_iso_or_equiv
  _atom_site_type_symbol
  N1       1.0000 0.01238  0.95437  0.99693  Biso   1.000  N
  N2       1.0000 0.03893  0.75738  0.30737  Biso   1.000  N
  N3       1.0000 0.06595  0.87836  0.98159  Biso   1.000  N
  N4       1.0000 0.09260  0.68771  0.29345  Biso   1.000  N
  N5       1.0000 0.11938  0.82501  0.96405  Biso   1.000  N
  N6       1.0000 0.14627  0.65080  0.27005  Biso   1.000  N
  N7       1.0000 0.17306  0.80504  0.93570  Biso   1.000  N
  N8       1.0000 0.19980  0.64661  0.23722  Biso   1.000  N
  N9       1.0000 0.22658  0.80404  0.90159  Biso   1.000  N
  N10      1.0000 0.25411  0.62326  0.22323  Biso   1.000  N
  N11      1.0000 0.27494  0.17586  0.08210  Biso   1.000  N
  N12      1.0000 0.30257  0.00036  0.39679  Biso   1.000  N
  N13      1.0000 0.32919  0.16361  0.05438  Biso   1.000  N
  N14      1.0000 0.35609  0.02859  0.33980  Biso   1.000  N
  N15      1.0000 0.38271  0.19176  0.99590  Biso   1.000  N
  N16      1.0000 0.41036  0.01611  0.30810  Biso   1.000  N
  N17      1.0000 0.43124  0.56786  0.16674  Biso   1.000  N
  N18      1.0000 0.45876  0.37965  0.49123  Biso   1.000  N
  N19      1.0000 0.48551  0.51708  0.15639  Biso   1.000  N
  N20      1.0000 0.51252  0.32304  0.45794  Biso   1.000  N
  N21      1.0000 0.53899  0.45376  0.11662  Biso   1.000  N
  N22      1.0000 0.56605  0.25835  0.41387  Biso   1.000  N
  N23      1.0000 0.59276  0.39448  0.07205  Biso   1.000  N
  N24      1.0000 0.61968  0.20786  0.37234  Biso   1.000  N
  N25      1.0000 0.64649  0.34612  0.03742  Biso   1.000  N
  N26      1.0000 0.67312  0.16508  0.34814  Biso   1.000  N
  N27      1.0000 0.70029  0.30605  0.02343  Biso   1.000  N
  N28      1.0000 0.72738  0.11734  0.35823  Biso   1.000  N
  N29      1.0000 0.74823  0.66327  0.22993  Biso   1.000  N
  N30      1.0000 0.77558  0.47932  0.55405  Biso   1.000  N
  N31      1.0000 0.80334  0.62716  0.21513  Biso   1.000  N
  N32      1.0000 0.82398  0.04790  0.33751  Biso   1.000  N
  N33      1.0000 0.85169  0.19373  0.99702  Biso   1.000  N
  N34      1.0000 0.87824  0.00588  0.31530  Biso   1.000  N
  N35      1.0000 0.90529  0.12541  0.00063  Biso   1.000  N
  N36      1.0000 0.93169  0.92801  0.32238  Biso   1.000  N
  N37      1.0000 0.95898  0.04222  0.00392  Biso   1.000  N
  N38      1.0000 0.98526  0.84155  0.32144  Biso   1.000  N
