data_image0
_cell_length_a       38.4971
_cell_length_b       2.17999
_cell_length_c       2.4524
_cell_angle_alpha    63.6122
_cell_angle_beta     88.2308
_cell_angle_gamma    87.5911

_symmetry_space_group_name_H-M    "P 1"
_symmetry_int_tables_number       1

loop_
  _symmetry_equiv_pos_as_xyz
  'x, y, z'

loop_
  _atom_site_label
  _atom_site_occupancy
  _atom_site_fract_x
  _atom_site_fract_y
  _atom_site_fract_z
  _atom_site_thermal_displace_type
  _atom_site_B_iso_or_equiv
  _atom_site_type_symbol
  N1       1.0000 0.01221  0.72106  0.20417  Biso   1.000  N
  N2       1.0000 0.03955  0.53145  0.53412  Biso   1.000  N
  N3       1.0000 0.06725  0.67275  0.20051  Biso   1.000  N
  N4       1.0000 0.08785  0.09268  0.32325  Biso   1.000  N
  N5       1.0000 0.11536  0.23076  0.98146  Biso   1.000  N
  N6       1.0000 0.14199  0.02377  0.29899  Biso   1.000  N
  N7       1.0000 0.16879  0.11376  0.98081  Biso   1.000  N
  N8       1.0000 0.19513  0.88870  0.30536  Biso   1.000  N
  N9       1.0000 0.22214  0.97401  0.99298  Biso   1.000  N
  N10      1.0000 0.24859  0.75576  0.31728  Biso   1.000  N
  N11      1.0000 0.27546  0.85472  0.99777  Biso   1.000  N
  N12      1.0000 0.30198  0.64806  0.31351  Biso   1.000  N
  N13      1.0000 0.32887  0.76830  0.98597  Biso   1.000  N
  N14      1.0000 0.35567  0.58182  0.29529  Biso   1.000  N
  N15      1.0000 0.38239  0.72420  0.96504  Biso   1.000  N
  N16      1.0000 0.40906  0.55382  0.27855  Biso   1.000  N
  N17      1.0000 0.43591  0.70524  0.95248  Biso   1.000  N
  N18      1.0000 0.46320  0.52391  0.28591  Biso   1.000  N
  N19      1.0000 0.48405  0.07830  0.15166  Biso   1.000  N
  N20      1.0000 0.51146  0.90987  0.48165  Biso   1.000  N
  N21      1.0000 0.53804  0.09840  0.15106  Biso   1.000  N
  N22      1.0000 0.56458  0.00706  0.45497  Biso   1.000  N
  N23      1.0000 0.59083  0.22042  0.11935  Biso   1.000  N
  N24      1.0000 0.61765  0.12998  0.42137  Biso   1.000  N
  N25      1.0000 0.64379  0.34124  0.08637  Biso   1.000  N
  N26      1.0000 0.67056  0.23609  0.39215  Biso   1.000  N
  N27      1.0000 0.69700  0.43252  0.06090  Biso   1.000  N
  N28      1.0000 0.72379  0.31162  0.36971  Biso   1.000  N
  N29      1.0000 0.75027  0.50026  0.04117  Biso   1.000  N
  N30      1.0000 0.77711  0.36009  0.35175  Biso   1.000  N
  N31      1.0000 0.80375  0.52529  0.02271  Biso   1.000  N
  N32      1.0000 0.83052  0.36144  0.33524  Biso   1.000  N
  N33      1.0000 0.85721  0.50577  0.00591  Biso   1.000  N
  N34      1.0000 0.88399  0.32297  0.31619  Biso   1.000  N
  N35      1.0000 0.91095  0.44800  0.99110  Biso   1.000  N
  N36      1.0000 0.93728  0.24915  0.31095  Biso   1.000  N
  N37      1.0000 0.96433  0.37148  0.99111  Biso   1.000  N
  N38      1.0000 0.99143  0.17530  0.33122  Biso   1.000  N
