data_image0
_cell_length_a       31.8298
_cell_length_b       2.16558
_cell_length_c       2.46252
_cell_angle_alpha    65.4048
_cell_angle_beta     86.003
_cell_angle_gamma    91.4667

_symmetry_space_group_name_H-M    "P 1"
_symmetry_int_tables_number       1

loop_
  _symmetry_equiv_pos_as_xyz
  'x, y, z'

loop_
  _atom_site_label
  _atom_site_occupancy
  _atom_site_fract_x
  _atom_site_fract_y
  _atom_site_fract_z
  _atom_site_thermal_displace_type
  _atom_site_B_iso_or_equiv
  _atom_site_type_symbol
  N1       1.0000 0.01199  0.56714  0.13479  Biso   1.000  N
  N2       1.0000 0.04469  0.42983  0.43784  Biso   1.000  N
  N3       1.0000 0.07720  0.63560  0.08244  Biso   1.000  N
  N4       1.0000 0.10863  0.50735  0.37263  Biso   1.000  N
  N5       1.0000 0.14124  0.71429  0.00788  Biso   1.000  N
  N6       1.0000 0.17264  0.57667  0.29913  Biso   1.000  N
  N7       1.0000 0.20524  0.76921  0.94568  Biso   1.000  N
  N8       1.0000 0.23781  0.62328  0.25186  Biso   1.000  N
  N9       1.0000 0.26308  0.20287  0.09713  Biso   1.000  N
  N10      1.0000 0.29568  0.05301  0.40506  Biso   1.000  N
  N11      1.0000 0.32819  0.23252  0.05190  Biso   1.000  N
  N12      1.0000 0.35976  0.07408  0.34282  Biso   1.000  N
  N13      1.0000 0.39212  0.25720  0.97618  Biso   1.000  N
  N14      1.0000 0.42380  0.10090  0.26134  Biso   1.000  N
  N15      1.0000 0.45630  0.28177  0.90176  Biso   1.000  N
  N16      1.0000 0.48894  0.13684  0.20061  Biso   1.000  N
  N17      1.0000 0.51450  0.71889  0.03984  Biso   1.000  N
  N18      1.0000 0.54708  0.57614  0.34301  Biso   1.000  N
  N19      1.0000 0.57968  0.76372  0.98639  Biso   1.000  N
  N20      1.0000 0.61235  0.62309  0.28838  Biso   1.000  N
  N21      1.0000 0.63776  0.20618  0.12981  Biso   1.000  N
  N22      1.0000 0.67047  0.06764  0.43113  Biso   1.000  N
  N23      1.0000 0.70299  0.26179  0.07298  Biso   1.000  N
  N24      1.0000 0.73570  0.12598  0.37360  Biso   1.000  N
  N25      1.0000 0.76119  0.71155  0.21003  Biso   1.000  N
  N26      1.0000 0.79401  0.58672  0.50372  Biso   1.000  N
  N27      1.0000 0.82630  0.81511  0.14074  Biso   1.000  N
  N28      1.0000 0.85799  0.72699  0.42396  Biso   1.000  N
  N29      1.0000 0.89015  0.97315  0.05773  Biso   1.000  N
  N30      1.0000 0.92172  0.88335  0.34657  Biso   1.000  N
  N31      1.0000 0.95400  0.11342  0.99012  Biso   1.000  N
  N32      1.0000 0.98678  0.98371  0.29296  Biso   1.000  N
