data_image0
_cell_length_a       31.5394
_cell_length_b       2.1538
_cell_length_c       2.46532
_cell_angle_alpha    65.9445
_cell_angle_beta     84.5203
_cell_angle_gamma    87.7386

_symmetry_space_group_name_H-M    "P 1"
_symmetry_int_tables_number       1

loop_
  _symmetry_equiv_pos_as_xyz
  'x, y, z'

loop_
  _atom_site_label
  _atom_site_occupancy
  _atom_site_fract_x
  _atom_site_fract_y
  _atom_site_fract_z
  _atom_site_thermal_displace_type
  _atom_site_B_iso_or_equiv
  _atom_site_type_symbol
  N1       1.0000 0.01055  0.61279  0.28441  Biso   1.000  N
  N2       1.0000 0.04370  0.44003  0.59256  Biso   1.000  N
  N3       1.0000 0.07646  0.60160  0.24054  Biso   1.000  N
  N4       1.0000 0.10832  0.43234  0.53770  Biso   1.000  N
  N5       1.0000 0.14091  0.59517  0.17942  Biso   1.000  N
  N6       1.0000 0.17313  0.43263  0.46566  Biso   1.000  N
  N7       1.0000 0.20670  0.59767  0.09360  Biso   1.000  N
  N8       1.0000 0.23185  0.03360  0.19894  Biso   1.000  N
  N9       1.0000 0.26567  0.18311  0.83901  Biso   1.000  N
  N10      1.0000 0.29896  0.02893  0.13414  Biso   1.000  N
  N11      1.0000 0.32436  0.58719  0.98632  Biso   1.000  N
  N12      1.0000 0.35715  0.42124  0.29165  Biso   1.000  N
  N13      1.0000 0.39017  0.58498  0.94197  Biso   1.000  N
  N14      1.0000 0.42171  0.41690  0.23756  Biso   1.000  N
  N15      1.0000 0.45469  0.58258  0.88486  Biso   1.000  N
  N16      1.0000 0.48751  0.41691  0.18487  Biso   1.000  N
  N17      1.0000 0.51324  0.97633  0.02800  Biso   1.000  N
  N18      1.0000 0.54633  0.81556  0.32215  Biso   1.000  N
  N19      1.0000 0.57924  0.98249  0.96340  Biso   1.000  N
  N20      1.0000 0.61213  0.82456  0.25601  Biso   1.000  N
  N21      1.0000 0.63835  0.39276  0.08797  Biso   1.000  N
  N22      1.0000 0.67127  0.23334  0.38124  Biso   1.000  N
  N23      1.0000 0.70420  0.39900  0.02214  Biso   1.000  N
  N24      1.0000 0.73732  0.24022  0.31574  Biso   1.000  N
  N25      1.0000 0.76296  0.80196  0.15578  Biso   1.000  N
  N26      1.0000 0.79618  0.64284  0.44593  Biso   1.000  N
  N27      1.0000 0.82889  0.81883  0.08003  Biso   1.000  N
  N28      1.0000 0.86070  0.66327  0.36408  Biso   1.000  N
  N29      1.0000 0.89346  0.83919  0.00052  Biso   1.000  N
  N30      1.0000 0.92655  0.66959  0.30103  Biso   1.000  N
  N31      1.0000 0.95185  0.23173  0.12861  Biso   1.000  N
  N32      1.0000 0.98546  0.05070  0.45416  Biso   1.000  N
