data_image0
_cell_length_a       32.3663
_cell_length_b       2.17992
_cell_length_c       2.45386
_cell_angle_alpha    63.7473
_cell_angle_beta     90.8557
_cell_angle_gamma    86.6062

_symmetry_space_group_name_H-M    "P 1"
_symmetry_int_tables_number       1

loop_
  _symmetry_equiv_pos_as_xyz
  'x, y, z'

loop_
  _atom_site_label
  _atom_site_occupancy
  _atom_site_fract_x
  _atom_site_fract_y
  _atom_site_fract_z
  _atom_site_thermal_displace_type
  _atom_site_B_iso_or_equiv
  _atom_site_type_symbol
  N1       1.0000 0.01427  0.89439  0.94066  Biso   1.000  N
  N2       1.0000 0.04564  0.63897  0.28264  Biso   1.000  N
  N3       1.0000 0.07751  0.69434  0.98711  Biso   1.000  N
  N4       1.0000 0.10879  0.43517  0.33081  Biso   1.000  N
  N5       1.0000 0.14078  0.48222  0.04101  Biso   1.000  N
  N6       1.0000 0.17193  0.21734  0.38805  Biso   1.000  N
  N7       1.0000 0.20388  0.26394  0.09914  Biso   1.000  N
  N8       1.0000 0.23528  0.01269  0.44446  Biso   1.000  N
  N9       1.0000 0.26718  0.07942  0.14947  Biso   1.000  N
  N10      1.0000 0.29871  0.84043  0.49031  Biso   1.000  N
  N11      1.0000 0.33076  0.92204  0.19428  Biso   1.000  N
  N12      1.0000 0.36244  0.69418  0.53634  Biso   1.000  N
  N13      1.0000 0.39425  0.79392  0.24050  Biso   1.000  N
  N14      1.0000 0.42620  0.58339  0.58167  Biso   1.000  N
  N15      1.0000 0.45858  0.71295  0.26529  Biso   1.000  N
  N16      1.0000 0.48372  0.11953  0.40770  Biso   1.000  N
  N17      1.0000 0.51592  0.25647  0.08625  Biso   1.000  N
  N18      1.0000 0.54825  0.06428  0.42435  Biso   1.000  N
  N19      1.0000 0.58058  0.20130  0.10295  Biso   1.000  N
  N20      1.0000 0.60551  0.61135  0.24010  Biso   1.000  N
  N21      1.0000 0.63793  0.74981  0.92352  Biso   1.000  N
  N22      1.0000 0.67006  0.57459  0.26021  Biso   1.000  N
  N23      1.0000 0.70176  0.73698  0.96482  Biso   1.000  N
  N24      1.0000 0.73362  0.56917  0.30639  Biso   1.000  N
  N25      1.0000 0.76529  0.72600  0.00901  Biso   1.000  N
  N26      1.0000 0.79742  0.54566  0.34568  Biso   1.000  N
  N27      1.0000 0.82982  0.67942  0.02772  Biso   1.000  N
  N28      1.0000 0.85468  0.08537  0.16835  Biso   1.000  N
  N29      1.0000 0.88712  0.21137  0.84937  Biso   1.000  N
  N30      1.0000 0.91909  0.99155  0.18857  Biso   1.000  N
  N31      1.0000 0.95066  0.07706  0.89015  Biso   1.000  N
  N32      1.0000 0.98238  0.83468  0.23312  Biso   1.000  N
