data_image0
_cell_length_a       21.5991
_cell_length_b       2.15011
_cell_length_c       2.47617
_cell_angle_alpha    65.671
_cell_angle_beta     89.9032
_cell_angle_gamma    87.3274

_symmetry_space_group_name_H-M    "P 1"
_symmetry_int_tables_number       1

loop_
  _symmetry_equiv_pos_as_xyz
  'x, y, z'

loop_
  _atom_site_label
  _atom_site_occupancy
  _atom_site_fract_x
  _atom_site_fract_y
  _atom_site_fract_z
  _atom_site_thermal_displace_type
  _atom_site_B_iso_or_equiv
  _atom_site_type_symbol
  N1       1.0000 0.01763  0.63897  0.24693  Biso   1.000  N
  N2       1.0000 0.06620  0.44452  0.59324  Biso   1.000  N
  N3       1.0000 0.11350  0.58671  0.28033  Biso   1.000  N
  N4       1.0000 0.16045  0.39740  0.61262  Biso   1.000  N
  N5       1.0000 0.20920  0.54073  0.28255  Biso   1.000  N
  N6       1.0000 0.24632  0.95735  0.42418  Biso   1.000  N
  N7       1.0000 0.29461  0.08990  0.10169  Biso   1.000  N
  N8       1.0000 0.34246  0.87798  0.43679  Biso   1.000  N
  N9       1.0000 0.38857  0.99219  0.12498  Biso   1.000  N
  N10      1.0000 0.43636  0.78032  0.46145  Biso   1.000  N
  N11      1.0000 0.48478  0.91555  0.13533  Biso   1.000  N
  N12      1.0000 0.52149  0.32939  0.28689  Biso   1.000  N
  N13      1.0000 0.57077  0.48297  0.93138  Biso   1.000  N
  N14      1.0000 0.60708  0.89693  0.08425  Biso   1.000  N
  N15      1.0000 0.65591  0.04569  0.74708  Biso   1.000  N
  N16      1.0000 0.70296  0.85980  0.07828  Biso   1.000  N
  N17      1.0000 0.75010  0.00286  0.76457  Biso   1.000  N
  N18      1.0000 0.79863  0.80926  0.11008  Biso   1.000  N
  N19      1.0000 0.83633  0.35297  0.97789  Biso   1.000  N
  N20      1.0000 0.88411  0.15716  0.32675  Biso   1.000  N
  N21      1.0000 0.93240  0.29309  0.02038  Biso   1.000  N
  N22      1.0000 0.98014  0.09827  0.37237  Biso   1.000  N
