data_image0
_cell_length_a       36.8863
_cell_length_b       2.20469
_cell_length_c       2.43942
_cell_angle_alpha    63.1741
_cell_angle_beta     90.9165
_cell_angle_gamma    91.9722

_symmetry_space_group_name_H-M    "P 1"
_symmetry_int_tables_number       1

loop_
  _symmetry_equiv_pos_as_xyz
  'x, y, z'

loop_
  _atom_site_label
  _atom_site_occupancy
  _atom_site_fract_x
  _atom_site_fract_y
  _atom_site_fract_z
  _atom_site_thermal_displace_type
  _atom_site_B_iso_or_equiv
  _atom_site_type_symbol
  N1       1.0000 0.01401  0.88186  0.00573  Biso   1.000  N
  N2       1.0000 0.04157  0.68784  0.33410  Biso   1.000  N
  N3       1.0000 0.06956  0.80598  0.01959  Biso   1.000  N
  N4       1.0000 0.09707  0.60736  0.34821  Biso   1.000  N
  N5       1.0000 0.12506  0.72312  0.03407  Biso   1.000  N
  N6       1.0000 0.15257  0.52620  0.36306  Biso   1.000  N
  N7       1.0000 0.18060  0.64652  0.04920  Biso   1.000  N
  N8       1.0000 0.20813  0.45554  0.37880  Biso   1.000  N
  N9       1.0000 0.23620  0.58676  0.06471  Biso   1.000  N
  N10      1.0000 0.26380  0.40713  0.39415  Biso   1.000  N
  N11      1.0000 0.29189  0.55634  0.07861  Biso   1.000  N
  N12      1.0000 0.31959  0.39489  0.40657  Biso   1.000  N
  N13      1.0000 0.34764  0.56783  0.08841  Biso   1.000  N
  N14      1.0000 0.37544  0.43003  0.41382  Biso   1.000  N
  N15      1.0000 0.40335  0.62830  0.09274  Biso   1.000  N
  N16      1.0000 0.43122  0.51587  0.41495  Biso   1.000  N
  N17      1.0000 0.45895  0.73593  0.09107  Biso   1.000  N
  N18      1.0000 0.48684  0.64669  0.40953  Biso   1.000  N
  N19      1.0000 0.51436  0.88290  0.08259  Biso   1.000  N
  N20      1.0000 0.54229  0.81278  0.39668  Biso   1.000  N
  N21      1.0000 0.56960  0.05943  0.06639  Biso   1.000  N
  N22      1.0000 0.59757  0.00121  0.37673  Biso   1.000  N
  N23      1.0000 0.62478  0.25169  0.04421  Biso   1.000  N
  N24      1.0000 0.65277  0.19462  0.35353  Biso   1.000  N
  N25      1.0000 0.68002  0.44187  0.02150  Biso   1.000  N
  N26      1.0000 0.70802  0.37583  0.33306  Biso   1.000  N
  N27      1.0000 0.73542  0.61491  0.00353  Biso   1.000  N
  N28      1.0000 0.76339  0.53404  0.31883  Biso   1.000  N
  N29      1.0000 0.79097  0.76136  0.99213  Biso   1.000  N
  N30      1.0000 0.81891  0.66135  0.31107  Biso   1.000  N
  N31      1.0000 0.84668  0.87096  0.98697  Biso   1.000  N
  N32      1.0000 0.87458  0.74588  0.30915  Biso   1.000  N
  N33      1.0000 0.90251  0.92972  0.98773  Biso   1.000  N
  N34      1.0000 0.93032  0.77575  0.31274  Biso   1.000  N
  N35      1.0000 0.95833  0.93029  0.99432  Biso   1.000  N
  N36      1.0000 0.98601  0.75121  0.32151  Biso   1.000  N
