data_image0
_cell_length_a       39.0449
_cell_length_b       2.19395
_cell_length_c       2.4371
_cell_angle_alpha    63.2247
_cell_angle_beta     88.6488
_cell_angle_gamma    84.7796

_symmetry_space_group_name_H-M    "P 1"
_symmetry_int_tables_number       1

loop_
  _symmetry_equiv_pos_as_xyz
  'x, y, z'

loop_
  _atom_site_label
  _atom_site_occupancy
  _atom_site_fract_x
  _atom_site_fract_y
  _atom_site_fract_z
  _atom_site_thermal_displace_type
  _atom_site_B_iso_or_equiv
  _atom_site_type_symbol
  N1       1.0000 0.01357  0.03156  0.03527  Biso   1.000  N
  N2       1.0000 0.04011  0.78420  0.36621  Biso   1.000  N
  N3       1.0000 0.06639  0.86313  0.05334  Biso   1.000  N
  N4       1.0000 0.09291  0.62184  0.38350  Biso   1.000  N
  N5       1.0000 0.11939  0.70960  0.06995  Biso   1.000  N
  N6       1.0000 0.14583  0.47855  0.39885  Biso   1.000  N
  N7       1.0000 0.17236  0.57291  0.08571  Biso   1.000  N
  N8       1.0000 0.19872  0.34766  0.41963  Biso   1.000  N
  N9       1.0000 0.22539  0.44321  0.11324  Biso   1.000  N
  N10      1.0000 0.25178  0.21858  0.45165  Biso   1.000  N
  N11      1.0000 0.27822  0.31324  0.14589  Biso   1.000  N
  N12      1.0000 0.30477  0.09270  0.48069  Biso   1.000  N
  N13      1.0000 0.33189  0.21078  0.15352  Biso   1.000  N
  N14      1.0000 0.35258  0.61098  0.28989  Biso   1.000  N
  N15      1.0000 0.37965  0.73134  0.96166  Biso   1.000  N
  N16      1.0000 0.40628  0.51993  0.29476  Biso   1.000  N
  N17      1.0000 0.43264  0.63122  0.98566  Biso   1.000  N
  N18      1.0000 0.45917  0.42393  0.32016  Biso   1.000  N
  N19      1.0000 0.48570  0.54322  0.00858  Biso   1.000  N
  N20      1.0000 0.51223  0.34515  0.33719  Biso   1.000  N
  N21      1.0000 0.53853  0.47676  0.01724  Biso   1.000  N
  N22      1.0000 0.56519  0.29504  0.33973  Biso   1.000  N
  N23      1.0000 0.59138  0.44195  0.01867  Biso   1.000  N
  N24      1.0000 0.61808  0.28181  0.34187  Biso   1.000  N
  N25      1.0000 0.64402  0.44610  0.02135  Biso   1.000  N
  N26      1.0000 0.67071  0.30162  0.34486  Biso   1.000  N
  N27      1.0000 0.69663  0.47605  0.02345  Biso   1.000  N
  N28      1.0000 0.72326  0.34456  0.34161  Biso   1.000  N
  N29      1.0000 0.74918  0.51788  0.01701  Biso   1.000  N
  N30      1.0000 0.77589  0.37135  0.33590  Biso   1.000  N
  N31      1.0000 0.80192  0.52663  0.01266  Biso   1.000  N
  N32      1.0000 0.82872  0.34832  0.33548  Biso   1.000  N
  N33      1.0000 0.85488  0.47393  0.01579  Biso   1.000  N
  N34      1.0000 0.88165  0.26124  0.34051  Biso   1.000  N
  N35      1.0000 0.90785  0.35963  0.02047  Biso   1.000  N
  N36      1.0000 0.93451  0.12247  0.34420  Biso   1.000  N
  N37      1.0000 0.96072  0.20482  0.02440  Biso   1.000  N
  N38      1.0000 0.98729  0.95611  0.34944  Biso   1.000  N
