data_image0
_cell_length_a       17.5128
_cell_length_b       2.14605
_cell_length_c       2.49674
_cell_angle_alpha    65.6564
_cell_angle_beta     89.8628
_cell_angle_gamma    86.3908

_symmetry_space_group_name_H-M    "P 1"
_symmetry_int_tables_number       1

loop_
  _symmetry_equiv_pos_as_xyz
  'x, y, z'

loop_
  _atom_site_label
  _atom_site_occupancy
  _atom_site_fract_x
  _atom_site_fract_y
  _atom_site_fract_z
  _atom_site_thermal_displace_type
  _atom_site_B_iso_or_equiv
  _atom_site_type_symbol
  N1       1.0000 0.02278  0.62867  0.25214  Biso   1.000  N
  N2       1.0000 0.08240  0.41737  0.60319  Biso   1.000  N
  N3       1.0000 0.14086  0.54375  0.29839  Biso   1.000  N
  N4       1.0000 0.19823  0.33661  0.63378  Biso   1.000  N
  N5       1.0000 0.25940  0.47180  0.30713  Biso   1.000  N
  N6       1.0000 0.30368  0.87675  0.46277  Biso   1.000  N
  N7       1.0000 0.36472  0.02682  0.10119  Biso   1.000  N
  N8       1.0000 0.40944  0.43160  0.25787  Biso   1.000  N
  N9       1.0000 0.47015  0.56641  0.92960  Biso   1.000  N
  N10      1.0000 0.52832  0.37121  0.25926  Biso   1.000  N
  N11      1.0000 0.58770  0.50826  0.92186  Biso   1.000  N
  N12      1.0000 0.63288  0.92350  0.05509  Biso   1.000  N
  N13      1.0000 0.69371  0.04523  0.74077  Biso   1.000  N
  N14      1.0000 0.75375  0.84911  0.08254  Biso   1.000  N
  N15      1.0000 0.79939  0.38176  0.96718  Biso   1.000  N
  N16      1.0000 0.85834  0.17472  0.32463  Biso   1.000  N
  N17      1.0000 0.91751  0.30140  0.02430  Biso   1.000  N
  N18      1.0000 0.97675  0.09503  0.37831  Biso   1.000  N
