data_image0
_cell_length_a       35.3978
_cell_length_b       2.18869
_cell_length_c       2.45129
_cell_angle_alpha    63.4509
_cell_angle_beta     88.6478
_cell_angle_gamma    90.582

_symmetry_space_group_name_H-M    "P 1"
_symmetry_int_tables_number       1

loop_
  _symmetry_equiv_pos_as_xyz
  'x, y, z'

loop_
  _atom_site_label
  _atom_site_occupancy
  _atom_site_fract_x
  _atom_site_fract_y
  _atom_site_fract_z
  _atom_site_thermal_displace_type
  _atom_site_B_iso_or_equiv
  _atom_site_type_symbol
  N1       1.0000 0.00810  0.72003  0.11197  Biso   1.000  N
  N2       1.0000 0.03797  0.55847  0.43264  Biso   1.000  N
  N3       1.0000 0.06718  0.72176  0.09969  Biso   1.000  N
  N4       1.0000 0.09584  0.56240  0.40842  Biso   1.000  N
  N5       1.0000 0.12520  0.72983  0.07720  Biso   1.000  N
  N6       1.0000 0.15407  0.58698  0.38612  Biso   1.000  N
  N7       1.0000 0.18335  0.76890  0.06069  Biso   1.000  N
  N8       1.0000 0.21204  0.63609  0.37728  Biso   1.000  N
  N9       1.0000 0.24139  0.82955  0.05722  Biso   1.000  N
  N10      1.0000 0.27009  0.70408  0.37433  Biso   1.000  N
  N11      1.0000 0.29934  0.90682  0.04966  Biso   1.000  N
  N12      1.0000 0.32803  0.78750  0.35950  Biso   1.000  N
  N13      1.0000 0.35734  0.98899  0.02899  Biso   1.000  N
  N14      1.0000 0.38611  0.86998  0.33718  Biso   1.000  N
  N15      1.0000 0.41523  0.07046  0.00890  Biso   1.000  N
  N16      1.0000 0.44413  0.94800  0.32126  Biso   1.000  N
  N17      1.0000 0.47325  0.14518  0.99519  Biso   1.000  N
  N18      1.0000 0.50220  0.02481  0.30427  Biso   1.000  N
  N19      1.0000 0.53110  0.22545  0.96959  Biso   1.000  N
  N20      1.0000 0.56028  0.11416  0.26822  Biso   1.000  N
  N21      1.0000 0.58921  0.31607  0.92765  Biso   1.000  N
  N22      1.0000 0.61816  0.20214  0.22797  Biso   1.000  N
  N23      1.0000 0.64718  0.39420  0.89191  Biso   1.000  N
  N24      1.0000 0.67699  0.24222  0.21365  Biso   1.000  N
  N25      1.0000 0.69957  0.81479  0.07500  Biso   1.000  N
  N26      1.0000 0.72938  0.65964  0.38975  Biso   1.000  N
  N27      1.0000 0.75849  0.82731  0.04787  Biso   1.000  N
  N28      1.0000 0.78749  0.66730  0.33575  Biso   1.000  N
  N29      1.0000 0.81669  0.83095  0.99487  Biso   1.000  N
  N30      1.0000 0.84635  0.67156  0.31187  Biso   1.000  N
  N31      1.0000 0.86905  0.24282  0.17128  Biso   1.000  N
  N32      1.0000 0.89871  0.07258  0.50042  Biso   1.000  N
  N33      1.0000 0.92766  0.21596  0.16726  Biso   1.000  N
  N34      1.0000 0.95642  0.04052  0.47386  Biso   1.000  N
  N35      1.0000 0.98639  0.21499  0.11759  Biso   1.000  N
