data_image0
_cell_length_a       33.6259
_cell_length_b       2.1522
_cell_length_c       2.46943
_cell_angle_alpha    65.653
_cell_angle_beta     89.9219
_cell_angle_gamma    89.9526

_symmetry_space_group_name_H-M    "P 1"
_symmetry_int_tables_number       1

loop_
  _symmetry_equiv_pos_as_xyz
  'x, y, z'

loop_
  _atom_site_label
  _atom_site_occupancy
  _atom_site_fract_x
  _atom_site_fract_y
  _atom_site_fract_z
  _atom_site_thermal_displace_type
  _atom_site_B_iso_or_equiv
  _atom_site_type_symbol
  N1       1.0000 0.01276  0.73798  0.00572  Biso   1.000  N
  N2       1.0000 0.04373  0.56849  0.34641  Biso   1.000  N
  N3       1.0000 0.07432  0.73029  0.02811  Biso   1.000  N
  N4       1.0000 0.10519  0.56371  0.37283  Biso   1.000  N
  N5       1.0000 0.12876  0.12346  0.24730  Biso   1.000  N
  N6       1.0000 0.16028  0.96881  0.57137  Biso   1.000  N
  N7       1.0000 0.19143  0.13309  0.23604  Biso   1.000  N
  N8       1.0000 0.21510  0.57649  0.35787  Biso   1.000  N
  N9       1.0000 0.24570  0.75354  0.00382  Biso   1.000  N
  N10      1.0000 0.27643  0.59316  0.30959  Biso   1.000  N
  N11      1.0000 0.30606  0.76669  0.97076  Biso   1.000  N
  N12      1.0000 0.33676  0.60383  0.28347  Biso   1.000  N
  N13      1.0000 0.36666  0.77474  0.95351  Biso   1.000  N
  N14      1.0000 0.39701  0.60975  0.27696  Biso   1.000  N
  N15      1.0000 0.42706  0.77761  0.95553  Biso   1.000  N
  N16      1.0000 0.45841  0.60780  0.29488  Biso   1.000  N
  N17      1.0000 0.48189  0.16826  0.16157  Biso   1.000  N
  N18      1.0000 0.51312  0.99806  0.50197  Biso   1.000  N
  N19      1.0000 0.54340  0.16660  0.18247  Biso   1.000  N
  N20      1.0000 0.57340  0.00254  0.51054  Biso   1.000  N
  N21      1.0000 0.60387  0.16858  0.19038  Biso   1.000  N
  N22      1.0000 0.63385  0.99878  0.51952  Biso   1.000  N
  N23      1.0000 0.66428  0.15912  0.19974  Biso   1.000  N
  N24      1.0000 0.69429  0.98946  0.52554  Biso   1.000  N
  N25      1.0000 0.72572  0.15260  0.19386  Biso   1.000  N
  N26      1.0000 0.74940  0.58829  0.33002  Biso   1.000  N
  N27      1.0000 0.78064  0.75135  0.99494  Biso   1.000  N
  N28      1.0000 0.81093  0.58297  0.32068  Biso   1.000  N
  N29      1.0000 0.84218  0.74625  0.98685  Biso   1.000  N
  N30      1.0000 0.86588  0.18069  0.12602  Biso   1.000  N
  N31      1.0000 0.89732  0.34918  0.78980  Biso   1.000  N
  N32      1.0000 0.92740  0.18396  0.11562  Biso   1.000  N
  N33      1.0000 0.95787  0.34797  0.79622  Biso   1.000  N
  N34      1.0000 0.98888  0.17589  0.14008  Biso   1.000  N
