data_image0
_cell_length_a       28.6926
_cell_length_b       2.15771
_cell_length_c       2.46233
_cell_angle_alpha    65.9189
_cell_angle_beta     87.3586
_cell_angle_gamma    88.1354

_symmetry_space_group_name_H-M    "P 1"
_symmetry_int_tables_number       1

loop_
  _symmetry_equiv_pos_as_xyz
  'x, y, z'

loop_
  _atom_site_label
  _atom_site_occupancy
  _atom_site_fract_x
  _atom_site_fract_y
  _atom_site_fract_z
  _atom_site_thermal_displace_type
  _atom_site_B_iso_or_equiv
  _atom_site_type_symbol
  N1       1.0000 0.01367  0.68776  0.13890  Biso   1.000  N
  N2       1.0000 0.05040  0.50175  0.46701  Biso   1.000  N
  N3       1.0000 0.08580  0.65006  0.13241  Biso   1.000  N
  N4       1.0000 0.12081  0.47014  0.44638  Biso   1.000  N
  N5       1.0000 0.15784  0.62978  0.09437  Biso   1.000  N
  N6       1.0000 0.18527  0.05874  0.22518  Biso   1.000  N
  N7       1.0000 0.22232  0.21782  0.87391  Biso   1.000  N
  N8       1.0000 0.25736  0.03964  0.18818  Biso   1.000  N
  N9       1.0000 0.29287  0.19061  0.85470  Biso   1.000  N
  N10      1.0000 0.32942  0.00562  0.18480  Biso   1.000  N
  N11      1.0000 0.35711  0.55938  0.03870  Biso   1.000  N
  N12      1.0000 0.39357  0.37716  0.36365  Biso   1.000  N
  N13      1.0000 0.42919  0.52920  0.02700  Biso   1.000  N
  N14      1.0000 0.46435  0.35024  0.33302  Biso   1.000  N
  N15      1.0000 0.49994  0.51266  0.98221  Biso   1.000  N
  N16      1.0000 0.53540  0.33869  0.28018  Biso   1.000  N
  N17      1.0000 0.57073  0.49472  0.93338  Biso   1.000  N
  N18      1.0000 0.60773  0.32722  0.24070  Biso   1.000  N
  N19      1.0000 0.63566  0.88729  0.08874  Biso   1.000  N
  N20      1.0000 0.67220  0.71521  0.40653  Biso   1.000  N
  N21      1.0000 0.70769  0.87630  0.06351  Biso   1.000  N
  N22      1.0000 0.74295  0.70182  0.37166  Biso   1.000  N
  N23      1.0000 0.77849  0.86091  0.03200  Biso   1.000  N
  N24      1.0000 0.81497  0.68210  0.35530  Biso   1.000  N
  N25      1.0000 0.84267  0.23835  0.20562  Biso   1.000  N
  N26      1.0000 0.87956  0.05946  0.52593  Biso   1.000  N
  N27      1.0000 0.91492  0.21313  0.18566  Biso   1.000  N
  N28      1.0000 0.94999  0.03725  0.49607  Biso   1.000  N
  N29      1.0000 0.98713  0.19950  0.13931  Biso   1.000  N
