data_image0
_cell_length_a       41.0495
_cell_length_b       2.22064
_cell_length_c       2.43348
_cell_angle_alpha    62.7194
_cell_angle_beta     87.9967
_cell_angle_gamma    85.9301

_symmetry_space_group_name_H-M    "P 1"
_symmetry_int_tables_number       1

loop_
  _symmetry_equiv_pos_as_xyz
  'x, y, z'

loop_
  _atom_site_label
  _atom_site_occupancy
  _atom_site_fract_x
  _atom_site_fract_y
  _atom_site_fract_z
  _atom_site_thermal_displace_type
  _atom_site_B_iso_or_equiv
  _atom_site_type_symbol
  N1       1.0000 0.01322  0.86148  0.07078  Biso   1.000  N
  N2       1.0000 0.03801  0.62002  0.40171  Biso   1.000  N
  N3       1.0000 0.06325  0.68840  0.08796  Biso   1.000  N
  N4       1.0000 0.08803  0.44341  0.42082  Biso   1.000  N
  N5       1.0000 0.11320  0.53309  0.10257  Biso   1.000  N
  N6       1.0000 0.13824  0.32992  0.43350  Biso   1.000  N
  N7       1.0000 0.16346  0.41613  0.11501  Biso   1.000  N
  N8       1.0000 0.18760  0.54320  0.32455  Biso   1.000  N
  N9       1.0000 0.21196  0.69528  0.97885  Biso   1.000  N
  N10      1.0000 0.23752  0.55577  0.29476  Biso   1.000  N
  N11      1.0000 0.26220  0.72369  0.96386  Biso   1.000  N
  N12      1.0000 0.28750  0.56989  0.28064  Biso   1.000  N
  N13      1.0000 0.31238  0.73408  0.94828  Biso   1.000  N
  N14      1.0000 0.33751  0.56628  0.26490  Biso   1.000  N
  N15      1.0000 0.36274  0.69875  0.93288  Biso   1.000  N
  N16      1.0000 0.38783  0.54440  0.25279  Biso   1.000  N
  N17      1.0000 0.41129  0.30661  0.06044  Biso   1.000  N
  N18      1.0000 0.43640  0.14971  0.38055  Biso   1.000  N
  N19      1.0000 0.46173  0.26937  0.05197  Biso   1.000  N
  N20      1.0000 0.48670  0.07344  0.37277  Biso   1.000  N
  N21      1.0000 0.51181  0.20518  0.04292  Biso   1.000  N
  N22      1.0000 0.53694  0.99781  0.36208  Biso   1.000  N
  N23      1.0000 0.56204  0.10064  0.03581  Biso   1.000  N
  N24      1.0000 0.58702  0.86745  0.35961  Biso   1.000  N
  N25      1.0000 0.61211  0.95043  0.03858  Biso   1.000  N
  N26      1.0000 0.63705  0.71337  0.36661  Biso   1.000  N
  N27      1.0000 0.66221  0.80132  0.04792  Biso   1.000  N
  N28      1.0000 0.68717  0.57460  0.37461  Biso   1.000  N
  N29      1.0000 0.71236  0.67887  0.05217  Biso   1.000  N
  N30      1.0000 0.73735  0.45728  0.37635  Biso   1.000  N
  N31      1.0000 0.76252  0.56270  0.05265  Biso   1.000  N
  N32      1.0000 0.78753  0.33951  0.37627  Biso   1.000  N
  N33      1.0000 0.81270  0.43903  0.05435  Biso   1.000  N
  N34      1.0000 0.83770  0.21354  0.37943  Biso   1.000  N
  N35      1.0000 0.86288  0.30730  0.05830  Biso   1.000  N
  N36      1.0000 0.88782  0.07616  0.38353  Biso   1.000  N
  N37      1.0000 0.91300  0.16382  0.06153  Biso   1.000  N
  N38      1.0000 0.93792  0.92943  0.38535  Biso   1.000  N
  N39      1.0000 0.96312  0.01623  0.06302  Biso   1.000  N
  N40      1.0000 0.98798  0.78240  0.38932  Biso   1.000  N
