data_image0
_cell_length_a       27.627
_cell_length_b       2.16692
_cell_length_c       2.47048
_cell_angle_alpha    65.4532
_cell_angle_beta     90.4653
_cell_angle_gamma    87.824

_symmetry_space_group_name_H-M    "P 1"
_symmetry_int_tables_number       1

loop_
  _symmetry_equiv_pos_as_xyz
  'x, y, z'

loop_
  _atom_site_label
  _atom_site_occupancy
  _atom_site_fract_x
  _atom_site_fract_y
  _atom_site_fract_z
  _atom_site_thermal_displace_type
  _atom_site_B_iso_or_equiv
  _atom_site_type_symbol
  N1       1.0000 0.01288  0.61180  0.26760  Biso   1.000  N
  N2       1.0000 0.05106  0.41519  0.61843  Biso   1.000  N
  N3       1.0000 0.08755  0.56907  0.30261  Biso   1.000  N
  N4       1.0000 0.12433  0.38843  0.63205  Biso   1.000  N
  N5       1.0000 0.16215  0.53968  0.30210  Biso   1.000  N
  N6       1.0000 0.19107  0.96154  0.44228  Biso   1.000  N
  N7       1.0000 0.22854  0.10965  0.11207  Biso   1.000  N
  N8       1.0000 0.26574  0.91779  0.44241  Biso   1.000  N
  N9       1.0000 0.30201  0.06060  0.12718  Biso   1.000  N
  N10      1.0000 0.33914  0.86488  0.46142  Biso   1.000  N
  N11      1.0000 0.37669  0.00560  0.13607  Biso   1.000  N
  N12      1.0000 0.40579  0.42266  0.27788  Biso   1.000  N
  N13      1.0000 0.44381  0.55855  0.95970  Biso   1.000  N
  N14      1.0000 0.48073  0.36178  0.29626  Biso   1.000  N
  N15      1.0000 0.51731  0.49556  0.98879  Biso   1.000  N
  N16      1.0000 0.55442  0.29509  0.33048  Biso   1.000  N
  N17      1.0000 0.59075  0.43685  0.01763  Biso   1.000  N
  N18      1.0000 0.62802  0.24899  0.34623  Biso   1.000  N
  N19      1.0000 0.66557  0.39759  0.01600  Biso   1.000  N
  N20      1.0000 0.69459  0.82202  0.15305  Biso   1.000  N
  N21      1.0000 0.73209  0.97597  0.81649  Biso   1.000  N
  N22      1.0000 0.76940  0.79726  0.13974  Biso   1.000  N
  N23      1.0000 0.80579  0.95193  0.81547  Biso   1.000  N
  N24      1.0000 0.84280  0.76803  0.14766  Biso   1.000  N
  N25      1.0000 0.87936  0.91439  0.83022  Biso   1.000  N
  N26      1.0000 0.91775  0.72284  0.17647  Biso   1.000  N
  N27      1.0000 0.94608  0.27094  0.03446  Biso   1.000  N
  N28      1.0000 0.98460  0.06533  0.40925  Biso   1.000  N
