data_image0
_cell_length_a       28.7363
_cell_length_b       2.1501
_cell_length_c       2.46834
_cell_angle_alpha    65.6598
_cell_angle_beta     89.3952
_cell_angle_gamma    88.2396

_symmetry_space_group_name_H-M    "P 1"
_symmetry_int_tables_number       1

loop_
  _symmetry_equiv_pos_as_xyz
  'x, y, z'

loop_
  _atom_site_label
  _atom_site_occupancy
  _atom_site_fract_x
  _atom_site_fract_y
  _atom_site_fract_z
  _atom_site_thermal_displace_type
  _atom_site_B_iso_or_equiv
  _atom_site_type_symbol
  N1       1.0000 0.01395  0.79288  0.89488  Biso   1.000  N
  N2       1.0000 0.05085  0.60910  0.23158  Biso   1.000  N
  N3       1.0000 0.08606  0.75691  0.90466  Biso   1.000  N
  N4       1.0000 0.12271  0.57583  0.23830  Biso   1.000  N
  N5       1.0000 0.15080  0.13146  0.09396  Biso   1.000  N
  N6       1.0000 0.18743  0.95237  0.42271  Biso   1.000  N
  N7       1.0000 0.22292  0.10478  0.09598  Biso   1.000  N
  N8       1.0000 0.25830  0.92782  0.41181  Biso   1.000  N
  N9       1.0000 0.29370  0.08873  0.07452  Biso   1.000  N
  N10      1.0000 0.32895  0.90594  0.39212  Biso   1.000  N
  N11      1.0000 0.36446  0.05436  0.06732  Biso   1.000  N
  N12      1.0000 0.40096  0.86834  0.40286  Biso   1.000  N
  N13      1.0000 0.42872  0.41985  0.26469  Biso   1.000  N
  N14      1.0000 0.46537  0.22815  0.60637  Biso   1.000  N
  N15      1.0000 0.50068  0.37040  0.28483  Biso   1.000  N
  N16      1.0000 0.53594  0.18234  0.61125  Biso   1.000  N
  N17      1.0000 0.57278  0.33268  0.27548  Biso   1.000  N
  N18      1.0000 0.60039  0.75556  0.41531  Biso   1.000  N
  N19      1.0000 0.63706  0.90706  0.07730  Biso   1.000  N
  N20      1.0000 0.67245  0.72544  0.40212  Biso   1.000  N
  N21      1.0000 0.70895  0.87551  0.06488  Biso   1.000  N
  N22      1.0000 0.73701  0.29710  0.20676  Biso   1.000  N
  N23      1.0000 0.77358  0.44211  0.87864  Biso   1.000  N
  N24      1.0000 0.80904  0.25218  0.20609  Biso   1.000  N
  N25      1.0000 0.84438  0.38698  0.89051  Biso   1.000  N
  N26      1.0000 0.87979  0.18771  0.22581  Biso   1.000  N
  N27      1.0000 0.91505  0.32994  0.90700  Biso   1.000  N
  N28      1.0000 0.95045  0.14832  0.23101  Biso   1.000  N
  N29      1.0000 0.98726  0.30264  0.89623  Biso   1.000  N
