data_image0
_cell_length_a       23.6635
_cell_length_b       2.15805
_cell_length_c       2.468
_cell_angle_alpha    65.621
_cell_angle_beta     85.7709
_cell_angle_gamma    87.3369

_symmetry_space_group_name_H-M    "P 1"
_symmetry_int_tables_number       1

loop_
  _symmetry_equiv_pos_as_xyz
  'x, y, z'

loop_
  _atom_site_label
  _atom_site_occupancy
  _atom_site_fract_x
  _atom_site_fract_y
  _atom_site_fract_z
  _atom_site_thermal_displace_type
  _atom_site_B_iso_or_equiv
  _atom_site_type_symbol
  N1       1.0000 0.01682  0.71393  0.07514  Biso   1.000  N
  N2       1.0000 0.06095  0.54818  0.37800  Biso   1.000  N
  N3       1.0000 0.10454  0.71433  0.01938  Biso   1.000  N
  N4       1.0000 0.14719  0.55261  0.30823  Biso   1.000  N
  N5       1.0000 0.19025  0.72213  0.94628  Biso   1.000  N
  N6       1.0000 0.23506  0.54562  0.25187  Biso   1.000  N
  N7       1.0000 0.26825  0.10456  0.08375  Biso   1.000  N
  N8       1.0000 0.31341  0.91225  0.42151  Biso   1.000  N
  N9       1.0000 0.34660  0.47041  0.25289  Biso   1.000  N
  N10      1.0000 0.39115  0.28576  0.56977  Biso   1.000  N
  N11      1.0000 0.43434  0.44321  0.22620  Biso   1.000  N
  N12      1.0000 0.47693  0.26079  0.53301  Biso   1.000  N
  N13      1.0000 0.52018  0.41650  0.18641  Biso   1.000  N
  N14      1.0000 0.56344  0.23413  0.48132  Biso   1.000  N
  N15      1.0000 0.60616  0.38702  0.12537  Biso   1.000  N
  N16      1.0000 0.64935  0.20706  0.41684  Biso   1.000  N
  N17      1.0000 0.69355  0.36369  0.04790  Biso   1.000  N
  N18      1.0000 0.72732  0.79180  0.16064  Biso   1.000  N
  N19      1.0000 0.77211  0.93674  0.80797  Biso   1.000  N
  N20      1.0000 0.81652  0.77225  0.11374  Biso   1.000  N
  N21      1.0000 0.85041  0.33395  0.96226  Biso   1.000  N
  N22      1.0000 0.89474  0.16351  0.27295  Biso   1.000  N
  N23      1.0000 0.93818  0.31808  0.92627  Biso   1.000  N
  N24      1.0000 0.98255  0.15148  0.23229  Biso   1.000  N
