data_image0
_cell_length_a       34.837
_cell_length_b       2.14733
_cell_length_c       2.45926
_cell_angle_alpha    66.1135
_cell_angle_beta     91.2081
_cell_angle_gamma    88.8702

_symmetry_space_group_name_H-M    "P 1"
_symmetry_int_tables_number       1

loop_
  _symmetry_equiv_pos_as_xyz
  'x, y, z'

loop_
  _atom_site_label
  _atom_site_occupancy
  _atom_site_fract_x
  _atom_site_fract_y
  _atom_site_fract_z
  _atom_site_thermal_displace_type
  _atom_site_B_iso_or_equiv
  _atom_site_type_symbol
  N1       1.0000 0.00850  0.75238  0.96016  Biso   1.000  N
  N2       1.0000 0.03902  0.57122  0.30755  Biso   1.000  N
  N3       1.0000 0.06824  0.71974  0.99871  Biso   1.000  N
  N4       1.0000 0.09728  0.53550  0.33587  Biso   1.000  N
  N5       1.0000 0.12663  0.68658  0.02210  Biso   1.000  N
  N6       1.0000 0.15576  0.49221  0.35572  Biso   1.000  N
  N7       1.0000 0.18507  0.62639  0.04361  Biso   1.000  N
  N8       1.0000 0.21415  0.41521  0.38060  Biso   1.000  N
  N9       1.0000 0.24340  0.53335  0.07440  Biso   1.000  N
  N10      1.0000 0.27252  0.31198  0.41658  Biso   1.000  N
  N11      1.0000 0.30171  0.41817  0.11445  Biso   1.000  N
  N12      1.0000 0.33085  0.19053  0.45774  Biso   1.000  N
  N13      1.0000 0.35991  0.30018  0.15131  Biso   1.000  N
  N14      1.0000 0.38917  0.09350  0.48944  Biso   1.000  N
  N15      1.0000 0.41938  0.22954  0.17257  Biso   1.000  N
  N16      1.0000 0.44237  0.65267  0.31743  Biso   1.000  N
  N17      1.0000 0.47231  0.80050  0.99365  Biso   1.000  N
  N18      1.0000 0.50181  0.61749  0.32834  Biso   1.000  N
  N19      1.0000 0.53056  0.77055  0.01344  Biso   1.000  N
  N20      1.0000 0.56009  0.59194  0.34810  Biso   1.000  N
  N21      1.0000 0.58997  0.74521  0.02352  Biso   1.000  N
  N22      1.0000 0.61289  0.17307  0.16404  Biso   1.000  N
  N23      1.0000 0.64319  0.31489  0.84923  Biso   1.000  N
  N24      1.0000 0.67373  0.14598  0.19492  Biso   1.000  N
  N25      1.0000 0.69638  0.69857  0.07307  Biso   1.000  N
  N26      1.0000 0.72664  0.52456  0.42706  Biso   1.000  N
  N27      1.0000 0.75593  0.68748  0.12181  Biso   1.000  N
  N28      1.0000 0.78510  0.52536  0.46347  Biso   1.000  N
  N29      1.0000 0.81407  0.70039  0.14745  Biso   1.000  N
  N30      1.0000 0.84376  0.54013  0.47375  Biso   1.000  N
  N31      1.0000 0.87347  0.69784  0.14498  Biso   1.000  N
  N32      1.0000 0.89694  0.12042  0.28668  Biso   1.000  N
  N33      1.0000 0.92650  0.27266  0.96071  Biso   1.000  N
  N34      1.0000 0.95639  0.10302  0.29089  Biso   1.000  N
  N35      1.0000 0.98632  0.25329  0.97165  Biso   1.000  N
