data_image0
_cell_length_a       33.6902
_cell_length_b       2.1878
_cell_length_c       2.44386
_cell_angle_alpha    63.4438
_cell_angle_beta     91.3218
_cell_angle_gamma    92.715

_symmetry_space_group_name_H-M    "P 1"
_symmetry_int_tables_number       1

loop_
  _symmetry_equiv_pos_as_xyz
  'x, y, z'

loop_
  _atom_site_label
  _atom_site_occupancy
  _atom_site_fract_x
  _atom_site_fract_y
  _atom_site_fract_z
  _atom_site_thermal_displace_type
  _atom_site_B_iso_or_equiv
  _atom_site_type_symbol
  N1       1.0000 0.01185  0.69716  0.01829  Biso   1.000  N
  N2       1.0000 0.04346  0.53549  0.35449  Biso   1.000  N
  N3       1.0000 0.07397  0.67364  0.03490  Biso   1.000  N
  N4       1.0000 0.10400  0.46135  0.35919  Biso   1.000  N
  N5       1.0000 0.13447  0.57325  0.04392  Biso   1.000  N
  N6       1.0000 0.16473  0.36472  0.36852  Biso   1.000  N
  N7       1.0000 0.19518  0.47753  0.05420  Biso   1.000  N
  N8       1.0000 0.22531  0.27172  0.38144  Biso   1.000  N
  N9       1.0000 0.25585  0.38823  0.06915  Biso   1.000  N
  N10      1.0000 0.28624  0.19734  0.39599  Biso   1.000  N
  N11      1.0000 0.31679  0.33332  0.08081  Biso   1.000  N
  N12      1.0000 0.34724  0.16324  0.40476  Biso   1.000  N
  N13      1.0000 0.37781  0.33065  0.08335  Biso   1.000  N
  N14      1.0000 0.40856  0.19641  0.40110  Biso   1.000  N
  N15      1.0000 0.43889  0.39920  0.07458  Biso   1.000  N
  N16      1.0000 0.46969  0.29711  0.38831  Biso   1.000  N
  N17      1.0000 0.49989  0.52076  0.06048  Biso   1.000  N
  N18      1.0000 0.53068  0.43640  0.37352  Biso   1.000  N
  N19      1.0000 0.56081  0.67145  0.04722  Biso   1.000  N
  N20      1.0000 0.59146  0.59662  0.36125  Biso   1.000  N
  N21      1.0000 0.62161  0.83195  0.03590  Biso   1.000  N
  N22      1.0000 0.65235  0.75400  0.35017  Biso   1.000  N
  N23      1.0000 0.68245  0.98751  0.02328  Biso   1.000  N
  N24      1.0000 0.71315  0.89763  0.33696  Biso   1.000  N
  N25      1.0000 0.74357  0.11424  0.00999  Biso   1.000  N
  N26      1.0000 0.77426  0.99764  0.32593  Biso   1.000  N
  N27      1.0000 0.80473  0.18911  0.00198  Biso   1.000  N
  N28      1.0000 0.83528  0.04470  0.32405  Biso   1.000  N
  N29      1.0000 0.86601  0.20489  0.00628  Biso   1.000  N
  N30      1.0000 0.89643  0.03575  0.33187  Biso   1.000  N
  N31      1.0000 0.92692  0.17494  0.01586  Biso   1.000  N
  N32      1.0000 0.95727  0.00888  0.34379  Biso   1.000  N
  N33      1.0000 0.98908  0.18565  0.01346  Biso   1.000  N
