data_image0
_cell_length_a       28.847
_cell_length_b       2.16411
_cell_length_c       2.4656
_cell_angle_alpha    65.5476
_cell_angle_beta     94.3457
_cell_angle_gamma    92.7176

_symmetry_space_group_name_H-M    "P 1"
_symmetry_int_tables_number       1

loop_
  _symmetry_equiv_pos_as_xyz
  'x, y, z'

loop_
  _atom_site_label
  _atom_site_occupancy
  _atom_site_fract_x
  _atom_site_fract_y
  _atom_site_fract_z
  _atom_site_thermal_displace_type
  _atom_site_B_iso_or_equiv
  _atom_site_type_symbol
  N1       1.0000 0.00892  0.85907  0.91959  Biso   1.000  N
  N2       1.0000 0.04571  0.69304  0.28448  Biso   1.000  N
  N3       1.0000 0.08086  0.86759  0.98611  Biso   1.000  N
  N4       1.0000 0.11620  0.71696  0.33645  Biso   1.000  N
  N5       1.0000 0.15125  0.91404  0.02868  Biso   1.000  N
  N6       1.0000 0.18725  0.81058  0.36216  Biso   1.000  N
  N7       1.0000 0.22156  0.03273  0.04531  Biso   1.000  N
  N8       1.0000 0.25783  0.97130  0.36885  Biso   1.000  N
  N9       1.0000 0.29195  0.20313  0.05564  Biso   1.000  N
  N10      1.0000 0.32812  0.13571  0.38940  Biso   1.000  N
  N11      1.0000 0.36251  0.36490  0.08723  Biso   1.000  N
  N12      1.0000 0.39843  0.26195  0.43439  Biso   1.000  N
  N13      1.0000 0.43309  0.48292  0.13156  Biso   1.000  N
  N14      1.0000 0.46877  0.35908  0.47515  Biso   1.000  N
  N15      1.0000 0.50498  0.55078  0.15936  Biso   1.000  N
  N16      1.0000 0.53271  0.99647  0.31256  Biso   1.000  N
  N17      1.0000 0.56893  0.17596  0.99968  Biso   1.000  N
  N18      1.0000 0.60457  0.01125  0.34623  Biso   1.000  N
  N19      1.0000 0.63955  0.17128  0.04891  Biso   1.000  N
  N20      1.0000 0.67500  0.98456  0.40702  Biso   1.000  N
  N21      1.0000 0.71008  0.13110  0.11462  Biso   1.000  N
  N22      1.0000 0.74571  0.95382  0.46575  Biso   1.000  N
  N23      1.0000 0.78187  0.11871  0.15971  Biso   1.000  N
  N24      1.0000 0.81002  0.56036  0.31494  Biso   1.000  N
  N25      1.0000 0.84610  0.72962  0.00018  Biso   1.000  N
  N26      1.0000 0.88156  0.56453  0.34890  Biso   1.000  N
  N27      1.0000 0.91827  0.73889  0.03509  Biso   1.000  N
  N28      1.0000 0.94530  0.17815  0.20196  Biso   1.000  N
  N29      1.0000 0.98290  0.37403  0.85513  Biso   1.000  N
