data_image0
_cell_length_a       36.9163
_cell_length_b       2.20349
_cell_length_c       2.43911
_cell_angle_alpha    63.1566
_cell_angle_beta     89.1301
_cell_angle_gamma    87.9992

_symmetry_space_group_name_H-M    "P 1"
_symmetry_int_tables_number       1

loop_
  _symmetry_equiv_pos_as_xyz
  'x, y, z'

loop_
  _atom_site_label
  _atom_site_occupancy
  _atom_site_fract_x
  _atom_site_fract_y
  _atom_site_fract_z
  _atom_site_thermal_displace_type
  _atom_site_B_iso_or_equiv
  _atom_site_type_symbol
  N1       1.0000 0.01388  0.06376  0.06950  Biso   1.000  N
  N2       1.0000 0.04183  0.88035  0.39039  Biso   1.000  N
  N3       1.0000 0.06960  0.03579  0.06556  Biso   1.000  N
  N4       1.0000 0.09758  0.88536  0.38443  Biso   1.000  N
  N5       1.0000 0.12521  0.06925  0.05826  Biso   1.000  N
  N6       1.0000 0.15314  0.94677  0.37483  Biso   1.000  N
  N7       1.0000 0.18063  0.14898  0.04760  Biso   1.000  N
  N8       1.0000 0.20850  0.04145  0.36267  Biso   1.000  N
  N9       1.0000 0.23594  0.24914  0.03511  Biso   1.000  N
  N10      1.0000 0.26382  0.14011  0.35039  Biso   1.000  N
  N11      1.0000 0.29133  0.33992  0.02320  Biso   1.000  N
  N12      1.0000 0.31928  0.21277  0.34013  Biso   1.000  N
  N13      1.0000 0.34695  0.39109  0.01388  Biso   1.000  N
  N14      1.0000 0.37493  0.23264  0.33319  Biso   1.000  N
  N15      1.0000 0.40272  0.37970  0.00842  Biso   1.000  N
  N16      1.0000 0.43064  0.18718  0.32978  Biso   1.000  N
  N17      1.0000 0.45845  0.30408  0.00691  Biso   1.000  N
  N18      1.0000 0.48623  0.08720  0.32970  Biso   1.000  N
  N19      1.0000 0.51403  0.18521  0.00883  Biso   1.000  N
  N20      1.0000 0.54171  0.95805  0.33295  Biso   1.000  N
  N21      1.0000 0.56954  0.04927  0.01396  Biso   1.000  N
  N22      1.0000 0.59717  0.82111  0.33940  Biso   1.000  N
  N23      1.0000 0.62506  0.91224  0.02185  Biso   1.000  N
  N24      1.0000 0.65266  0.68591  0.34851  Biso   1.000  N
  N25      1.0000 0.68060  0.77889  0.03191  Biso   1.000  N
  N26      1.0000 0.70818  0.55429  0.35944  Biso   1.000  N
  N27      1.0000 0.73614  0.64917  0.04318  Biso   1.000  N
  N28      1.0000 0.76374  0.42621  0.37063  Biso   1.000  N
  N29      1.0000 0.79168  0.52228  0.05378  Biso   1.000  N
  N30      1.0000 0.81931  0.29945  0.38020  Biso   1.000  N
  N31      1.0000 0.84721  0.39487  0.06213  Biso   1.000  N
  N32      1.0000 0.87487  0.17055  0.38721  Biso   1.000  N
  N33      1.0000 0.90271  0.26648  0.06768  Biso   1.000  N
  N34      1.0000 0.93043  0.04391  0.39148  Biso   1.000  N
  N35      1.0000 0.95824  0.14817  0.07024  Biso   1.000  N
  N36      1.0000 0.98606  0.93841  0.39268  Biso   1.000  N
