data_image0
_cell_length_a       25.3175
_cell_length_b       2.18797
_cell_length_c       2.43865
_cell_angle_alpha    63.3364
_cell_angle_beta     84.2052
_cell_angle_gamma    77.2644

_symmetry_space_group_name_H-M    "P 1"
_symmetry_int_tables_number       1

loop_
  _symmetry_equiv_pos_as_xyz
  'x, y, z'

loop_
  _atom_site_label
  _atom_site_occupancy
  _atom_site_fract_x
  _atom_site_fract_y
  _atom_site_fract_z
  _atom_site_thermal_displace_type
  _atom_site_B_iso_or_equiv
  _atom_site_type_symbol
  N1       1.0000 0.02112  0.98378  0.02105  Biso   1.000  N
  N2       1.0000 0.06258  0.69443  0.34268  Biso   1.000  N
  N3       1.0000 0.10451  0.71471  0.02405  Biso   1.000  N
  N4       1.0000 0.14583  0.41617  0.34743  Biso   1.000  N
  N5       1.0000 0.18779  0.42528  0.03071  Biso   1.000  N
  N6       1.0000 0.22901  0.12062  0.35505  Biso   1.000  N
  N7       1.0000 0.27100  0.12444  0.03912  Biso   1.000  N
  N8       1.0000 0.31221  0.81905  0.36361  Biso   1.000  N
  N9       1.0000 0.35419  0.82621  0.04713  Biso   1.000  N
  N10      1.0000 0.39546  0.52608  0.37118  Biso   1.000  N
  N11      1.0000 0.43745  0.54334  0.05379  Biso   1.000  N
  N12      1.0000 0.47882  0.25279  0.37697  Biso   1.000  N
  N13      1.0000 0.52076  0.28453  0.05792  Biso   1.000  N
  N14      1.0000 0.56227  0.00582  0.37942  Biso   1.000  N
  N15      1.0000 0.60409  0.05339  0.05767  Biso   1.000  N
  N16      1.0000 0.64577  0.78597  0.37630  Biso   1.000  N
  N17      1.0000 0.68741  0.84572  0.05135  Biso   1.000  N
  N18      1.0000 0.72923  0.58504  0.36728  Biso   1.000  N
  N19      1.0000 0.77077  0.64912  0.04051  Biso   1.000  N
  N20      1.0000 0.81261  0.38810  0.35584  Biso   1.000  N
  N21      1.0000 0.85420  0.44782  0.02956  Biso   1.000  N
  N22      1.0000 0.89596  0.17978  0.34654  Biso   1.000  N
  N23      1.0000 0.93766  0.22827  0.02267  Biso   1.000  N
  N24      1.0000 0.97929  0.94954  0.34218  Biso   1.000  N
