data_image0
_cell_length_a       38.6972
_cell_length_b       2.18346
_cell_length_c       2.44735
_cell_angle_alpha    63.4737
_cell_angle_beta     91.9006
_cell_angle_gamma    90.428

_symmetry_space_group_name_H-M    "P 1"
_symmetry_int_tables_number       1

loop_
  _symmetry_equiv_pos_as_xyz
  'x, y, z'

loop_
  _atom_site_label
  _atom_site_occupancy
  _atom_site_fract_x
  _atom_site_fract_y
  _atom_site_fract_z
  _atom_site_thermal_displace_type
  _atom_site_B_iso_or_equiv
  _atom_site_type_symbol
  N1       1.0000 0.01466  0.06098  0.07858  Biso   1.000  N
  N2       1.0000 0.04111  0.84623  0.41202  Biso   1.000  N
  N3       1.0000 0.06765  0.94645  0.10697  Biso   1.000  N
  N4       1.0000 0.09399  0.72969  0.44514  Biso   1.000  N
  N5       1.0000 0.12064  0.82513  0.14671  Biso   1.000  N
  N6       1.0000 0.14711  0.61457  0.48838  Biso   1.000  N
  N7       1.0000 0.17354  0.72122  0.18737  Biso   1.000  N
  N8       1.0000 0.20024  0.53129  0.52474  Biso   1.000  N
  N9       1.0000 0.22744  0.68710  0.20103  Biso   1.000  N
  N10      1.0000 0.24823  0.11757  0.34013  Biso   1.000  N
  N11      1.0000 0.27542  0.27424  0.01822  Biso   1.000  N
  N12      1.0000 0.30219  0.09805  0.35525  Biso   1.000  N
  N13      1.0000 0.32882  0.23324  0.05658  Biso   1.000  N
  N14      1.0000 0.35543  0.05678  0.39906  Biso   1.000  N
  N15      1.0000 0.38199  0.20638  0.09728  Biso   1.000  N
  N16      1.0000 0.40887  0.04452  0.43046  Biso   1.000  N
  N17      1.0000 0.43591  0.21416  0.10359  Biso   1.000  N
  N18      1.0000 0.45675  0.64992  0.23859  Biso   1.000  N
  N19      1.0000 0.48377  0.82471  0.90945  Biso   1.000  N
  N20      1.0000 0.51070  0.69091  0.23971  Biso   1.000  N
  N21      1.0000 0.53686  0.89208  0.93008  Biso   1.000  N
  N22      1.0000 0.56364  0.77264  0.26341  Biso   1.000  N
  N23      1.0000 0.59001  0.97652  0.95579  Biso   1.000  N
  N24      1.0000 0.61670  0.86131  0.28533  Biso   1.000  N
  N25      1.0000 0.64294  0.06539  0.97044  Biso   1.000  N
  N26      1.0000 0.66970  0.95381  0.29622  Biso   1.000  N
  N27      1.0000 0.69592  0.15585  0.98136  Biso   1.000  N
  N28      1.0000 0.72282  0.04558  0.30652  Biso   1.000  N
  N29      1.0000 0.74891  0.24051  0.99224  Biso   1.000  N
  N30      1.0000 0.77590  0.11388  0.32013  Biso   1.000  N
  N31      1.0000 0.80207  0.29095  0.00486  Biso   1.000  N
  N32      1.0000 0.82905  0.13837  0.33018  Biso   1.000  N
  N33      1.0000 0.85531  0.29336  0.01413  Biso   1.000  N
  N34      1.0000 0.88220  0.11254  0.34086  Biso   1.000  N
  N35      1.0000 0.90849  0.24740  0.02898  Biso   1.000  N
  N36      1.0000 0.93527  0.04734  0.36160  Biso   1.000  N
  N37      1.0000 0.96155  0.16517  0.05316  Biso   1.000  N
  N38      1.0000 0.98820  0.95413  0.38546  Biso   1.000  N
