data_image0
_cell_length_a       37.3325
_cell_length_b       2.17698
_cell_length_c       2.44943
_cell_angle_alpha    63.5689
_cell_angle_beta     91.4986
_cell_angle_gamma    89.2706

_symmetry_space_group_name_H-M    "P 1"
_symmetry_int_tables_number       1

loop_
  _symmetry_equiv_pos_as_xyz
  'x, y, z'

loop_
  _atom_site_label
  _atom_site_occupancy
  _atom_site_fract_x
  _atom_site_fract_y
  _atom_site_fract_z
  _atom_site_thermal_displace_type
  _atom_site_B_iso_or_equiv
  _atom_site_type_symbol
  N1       1.0000 0.00838  0.73848  0.98209  Biso   1.000  N
  N2       1.0000 0.03699  0.56440  0.32776  Biso   1.000  N
  N3       1.0000 0.06440  0.73519  0.01667  Biso   1.000  N
  N4       1.0000 0.09196  0.60955  0.34540  Biso   1.000  N
  N5       1.0000 0.11926  0.79371  0.03755  Biso   1.000  N
  N6       1.0000 0.14716  0.67279  0.36651  Biso   1.000  N
  N7       1.0000 0.17418  0.86333  0.05583  Biso   1.000  N
  N8       1.0000 0.20207  0.75244  0.37971  Biso   1.000  N
  N9       1.0000 0.22911  0.94824  0.06475  Biso   1.000  N
  N10      1.0000 0.25697  0.83104  0.38708  Biso   1.000  N
  N11      1.0000 0.28422  0.02209  0.07573  Biso   1.000  N
  N12      1.0000 0.31181  0.88858  0.40614  Biso   1.000  N
  N13      1.0000 0.33935  0.06313  0.10246  Biso   1.000  N
  N14      1.0000 0.36703  0.90726  0.43896  Biso   1.000  N
  N15      1.0000 0.39437  0.06299  0.13690  Biso   1.000  N
  N16      1.0000 0.42217  0.89261  0.47200  Biso   1.000  N
  N17      1.0000 0.45028  0.04536  0.15126  Biso   1.000  N
  N18      1.0000 0.47183  0.46951  0.29219  Biso   1.000  N
  N19      1.0000 0.50015  0.61048  0.97733  Biso   1.000  N
  N20      1.0000 0.52751  0.40699  0.32359  Biso   1.000  N
  N21      1.0000 0.55538  0.47872  0.04083  Biso   1.000  N
  N22      1.0000 0.58220  0.25339  0.39930  Biso   1.000  N
  N23      1.0000 0.61015  0.32251  0.11807  Biso   1.000  N
  N24      1.0000 0.63733  0.11753  0.46694  Biso   1.000  N
  N25      1.0000 0.66591  0.25594  0.15642  Biso   1.000  N
  N26      1.0000 0.68732  0.67976  0.29978  Biso   1.000  N
  N27      1.0000 0.71577  0.82343  0.99205  Biso   1.000  N
  N28      1.0000 0.74327  0.63452  0.33792  Biso   1.000  N
  N29      1.0000 0.77087  0.74875  0.05362  Biso   1.000  N
  N30      1.0000 0.79840  0.56204  0.39831  Biso   1.000  N
  N31      1.0000 0.82676  0.70933  0.08577  Biso   1.000  N
  N32      1.0000 0.84821  0.13539  0.22407  Biso   1.000  N
  N33      1.0000 0.87650  0.28874  0.90665  Biso   1.000  N
  N34      1.0000 0.90420  0.11754  0.24326  Biso   1.000  N
  N35      1.0000 0.93158  0.26618  0.94786  Biso   1.000  N
  N36      1.0000 0.95925  0.09483  0.28786  Biso   1.000  N
  N37      1.0000 0.98768  0.24574  0.97637  Biso   1.000  N
