data_image0
_cell_length_a       26.6495
_cell_length_b       2.15422
_cell_length_c       2.47414
_cell_angle_alpha    65.5067
_cell_angle_beta     89.0611
_cell_angle_gamma    87.8904

_symmetry_space_group_name_H-M    "P 1"
_symmetry_int_tables_number       1

loop_
  _symmetry_equiv_pos_as_xyz
  'x, y, z'

loop_
  _atom_site_label
  _atom_site_occupancy
  _atom_site_fract_x
  _atom_site_fract_y
  _atom_site_fract_z
  _atom_site_thermal_displace_type
  _atom_site_B_iso_or_equiv
  _atom_site_type_symbol
  N1       1.0000 0.01250  0.79777  0.87637  Biso   1.000  N
  N2       1.0000 0.05224  0.61178  0.20783  Biso   1.000  N
  N3       1.0000 0.09060  0.75072  0.88600  Biso   1.000  N
  N4       1.0000 0.12855  0.56589  0.20598  Biso   1.000  N
  N5       1.0000 0.16684  0.72004  0.87496  Biso   1.000  N
  N6       1.0000 0.20485  0.54242  0.19588  Biso   1.000  N
  N7       1.0000 0.24334  0.69054  0.87598  Biso   1.000  N
  N8       1.0000 0.28254  0.50886  0.20899  Biso   1.000  N
  N9       1.0000 0.31300  0.06047  0.07024  Biso   1.000  N
  N10      1.0000 0.35202  0.87723  0.40904  Biso   1.000  N
  N11      1.0000 0.39064  0.02326  0.08968  Biso   1.000  N
  N12      1.0000 0.42978  0.83793  0.42944  Biso   1.000  N
  N13      1.0000 0.45977  0.38613  0.29868  Biso   1.000  N
  N14      1.0000 0.49902  0.19890  0.64025  Biso   1.000  N
  N15      1.0000 0.53753  0.34165  0.32262  Biso   1.000  N
  N16      1.0000 0.57562  0.15663  0.65008  Biso   1.000  N
  N17      1.0000 0.61362  0.30671  0.31937  Biso   1.000  N
  N18      1.0000 0.65194  0.12501  0.63945  Biso   1.000  N
  N19      1.0000 0.69156  0.27725  0.29529  Biso   1.000  N
  N20      1.0000 0.72091  0.69542  0.44212  Biso   1.000  N
  N21      1.0000 0.76106  0.85628  0.07792  Biso   1.000  N
  N22      1.0000 0.79050  0.27482  0.22410  Biso   1.000  N
  N23      1.0000 0.82988  0.42512  0.88161  Biso   1.000  N
  N24      1.0000 0.86806  0.23120  0.20202  Biso   1.000  N
  N25      1.0000 0.90594  0.36502  0.87597  Biso   1.000  N
  N26      1.0000 0.94394  0.17252  0.20167  Biso   1.000  N
  N27      1.0000 0.98374  0.31294  0.87347  Biso   1.000  N
