data_image0
_cell_length_a       25.5601
_cell_length_b       2.1447
_cell_length_c       2.46267
_cell_angle_alpha    65.9207
_cell_angle_beta     90.0034
_cell_angle_gamma    89.9958

_symmetry_space_group_name_H-M    "P 1"
_symmetry_int_tables_number       1

loop_
  _symmetry_equiv_pos_as_xyz
  'x, y, z'

loop_
  _atom_site_label
  _atom_site_occupancy
  _atom_site_fract_x
  _atom_site_fract_y
  _atom_site_fract_z
  _atom_site_thermal_displace_type
  _atom_site_B_iso_or_equiv
  _atom_site_type_symbol
  N1       1.0000 0.01735  0.75233  0.97125  Biso   1.000  N
  N2       1.0000 0.05842  0.59226  0.30120  Biso   1.000  N
  N3       1.0000 0.09873  0.75537  0.98121  Biso   1.000  N
  N4       1.0000 0.13919  0.59459  0.31524  Biso   1.000  N
  N5       1.0000 0.17126  0.16273  0.18017  Biso   1.000  N
  N6       1.0000 0.21189  0.00228  0.51359  Biso   1.000  N
  N7       1.0000 0.25221  0.16296  0.19561  Biso   1.000  N
  N8       1.0000 0.29293  0.99796  0.53331  Biso   1.000  N
  N9       1.0000 0.32405  0.55998  0.40595  Biso   1.000  N
  N10      1.0000 0.36539  0.40498  0.73368  Biso   1.000  N
  N11      1.0000 0.40672  0.55971  0.40591  Biso   1.000  N
  N12      1.0000 0.43784  0.99768  0.53311  Biso   1.000  N
  N13      1.0000 0.47855  0.16290  0.19530  Biso   1.000  N
  N14      1.0000 0.51888  0.00261  0.51337  Biso   1.000  N
  N15      1.0000 0.55951  0.16351  0.17989  Biso   1.000  N
  N16      1.0000 0.59156  0.59536  0.31501  Biso   1.000  N
  N17      1.0000 0.63203  0.75609  0.98095  Biso   1.000  N
  N18      1.0000 0.67234  0.59270  0.30108  Biso   1.000  N
  N19      1.0000 0.71342  0.75240  0.97122  Biso   1.000  N
  N20      1.0000 0.74475  0.18888  0.10433  Biso   1.000  N
  N21      1.0000 0.78572  0.35533  0.76575  Biso   1.000  N
  N22      1.0000 0.82567  0.19140  0.08632  Biso   1.000  N
  N23      1.0000 0.86539  0.35962  0.76026  Biso   1.000  N
  N24      1.0000 0.90511  0.19169  0.08629  Biso   1.000  N
  N25      1.0000 0.94506  0.35568  0.76567  Biso   1.000  N
  N26      1.0000 0.98602  0.18901  0.10432  Biso   1.000  N
