data_image0
_cell_length_a       32.5998
_cell_length_b       2.15398
_cell_length_c       2.46733
_cell_angle_alpha    65.6268
_cell_angle_beta     89.202
_cell_angle_gamma    89.9702

_symmetry_space_group_name_H-M    "P 1"
_symmetry_int_tables_number       1

loop_
  _symmetry_equiv_pos_as_xyz
  'x, y, z'

loop_
  _atom_site_label
  _atom_site_occupancy
  _atom_site_fract_x
  _atom_site_fract_y
  _atom_site_fract_z
  _atom_site_thermal_displace_type
  _atom_site_B_iso_or_equiv
  _atom_site_type_symbol
  N1       1.0000 0.01222  0.63430  0.25091  Biso   1.000  N
  N2       1.0000 0.04431  0.46221  0.58527  Biso   1.000  N
  N3       1.0000 0.07559  0.62561  0.25880  Biso   1.000  N
  N4       1.0000 0.10651  0.45900  0.57783  Biso   1.000  N
  N5       1.0000 0.13887  0.63076  0.23680  Biso   1.000  N
  N6       1.0000 0.16350  0.07004  0.36883  Biso   1.000  N
  N7       1.0000 0.19536  0.24196  0.02073  Biso   1.000  N
  N8       1.0000 0.22700  0.07939  0.33217  Biso   1.000  N
  N9       1.0000 0.25887  0.25151  0.98440  Biso   1.000  N
  N10      1.0000 0.28349  0.69039  0.11611  Biso   1.000  N
  N11      1.0000 0.31590  0.86100  0.77466  Biso   1.000  N
  N12      1.0000 0.34683  0.69533  0.09465  Biso   1.000  N
  N13      1.0000 0.37824  0.86031  0.76981  Biso   1.000  N
  N14      1.0000 0.41016  0.68864  0.10735  Biso   1.000  N
  N15      1.0000 0.43474  0.25028  0.97079  Biso   1.000  N
  N16      1.0000 0.46658  0.08264  0.30400  Biso   1.000  N
  N17      1.0000 0.49810  0.25034  0.97800  Biso   1.000  N
  N18      1.0000 0.52901  0.08947  0.29429  Biso   1.000  N
  N19      1.0000 0.56016  0.26613  0.95483  Biso   1.000  N
  N20      1.0000 0.59167  0.11356  0.25797  Biso   1.000  N
  N21      1.0000 0.62257  0.29300  0.91431  Biso   1.000  N
  N22      1.0000 0.65389  0.13847  0.22342  Biso   1.000  N
  N23      1.0000 0.68500  0.31026  0.89060  Biso   1.000  N
  N24      1.0000 0.71737  0.15055  0.21580  Biso   1.000  N
  N25      1.0000 0.74174  0.71445  0.07958  Biso   1.000  N
  N26      1.0000 0.77386  0.55119  0.41202  Biso   1.000  N
  N27      1.0000 0.80524  0.71778  0.08404  Biso   1.000  N
  N28      1.0000 0.83726  0.55199  0.41715  Biso   1.000  N
  N29      1.0000 0.86183  0.11723  0.27491  Biso   1.000  N
  N30      1.0000 0.89410  0.94999  0.60538  Biso   1.000  N
  N31      1.0000 0.92519  0.11956  0.27637  Biso   1.000  N
  N32      1.0000 0.95625  0.95980  0.59406  Biso   1.000  N
  N33      1.0000 0.98860  0.13537  0.24916  Biso   1.000  N
