data_image0
_cell_length_a       28.7899
_cell_length_b       2.13661
_cell_length_c       2.47065
_cell_angle_alpha    65.9345
_cell_angle_beta     88.8713
_cell_angle_gamma    87.5931

_symmetry_space_group_name_H-M    "P 1"
_symmetry_int_tables_number       1

loop_
  _symmetry_equiv_pos_as_xyz
  'x, y, z'

loop_
  _atom_site_label
  _atom_site_occupancy
  _atom_site_fract_x
  _atom_site_fract_y
  _atom_site_fract_z
  _atom_site_thermal_displace_type
  _atom_site_B_iso_or_equiv
  _atom_site_type_symbol
  N1       1.0000 0.01242  0.74686  0.01954  Biso   1.000  N
  N2       1.0000 0.04892  0.55398  0.36329  Biso   1.000  N
  N3       1.0000 0.08483  0.68890  0.05295  Biso   1.000  N
  N4       1.0000 0.11969  0.49841  0.38800  Biso   1.000  N
  N5       1.0000 0.15540  0.64276  0.06729  Biso   1.000  N
  N6       1.0000 0.19057  0.45916  0.39102  Biso   1.000  N
  N7       1.0000 0.22745  0.60704  0.05278  Biso   1.000  N
  N8       1.0000 0.25483  0.02969  0.18725  Biso   1.000  N
  N9       1.0000 0.29161  0.18016  0.84685  Biso   1.000  N
  N10      1.0000 0.32708  0.00003  0.16400  Biso   1.000  N
  N11      1.0000 0.36227  0.15338  0.83280  Biso   1.000  N
  N12      1.0000 0.39770  0.97174  0.15548  Biso   1.000  N
  N13      1.0000 0.43322  0.11679  0.83462  Biso   1.000  N
  N14      1.0000 0.46984  0.93527  0.16866  Biso   1.000  N
  N15      1.0000 0.49771  0.48754  0.03118  Biso   1.000  N
  N16      1.0000 0.53421  0.30746  0.36392  Biso   1.000  N
  N17      1.0000 0.56978  0.45546  0.04114  Biso   1.000  N
  N18      1.0000 0.60634  0.27578  0.37269  Biso   1.000  N
  N19      1.0000 0.63423  0.82892  0.23333  Biso   1.000  N
  N20      1.0000 0.67083  0.64577  0.56807  Biso   1.000  N
  N21      1.0000 0.70630  0.79327  0.24716  Biso   1.000  N
  N22      1.0000 0.74176  0.60977  0.57037  Biso   1.000  N
  N23      1.0000 0.77686  0.76408  0.23908  Biso   1.000  N
  N24      1.0000 0.81255  0.58510  0.55380  Biso   1.000  N
  N25      1.0000 0.84903  0.73350  0.21315  Biso   1.000  N
  N26      1.0000 0.87680  0.15415  0.34686  Biso   1.000  N
  N27      1.0000 0.91347  0.30153  0.01464  Biso   1.000  N
  N28      1.0000 0.94866  0.12116  0.34234  Biso   1.000  N
  N29      1.0000 0.98563  0.26484  0.01274  Biso   1.000  N
