data_image0
_cell_length_a       30.6014
_cell_length_b       2.14867
_cell_length_c       2.47307
_cell_angle_alpha    65.6384
_cell_angle_beta     86.9348
_cell_angle_gamma    89.9941

_symmetry_space_group_name_H-M    "P 1"
_symmetry_int_tables_number       1

loop_
  _symmetry_equiv_pos_as_xyz
  'x, y, z'

loop_
  _atom_site_label
  _atom_site_occupancy
  _atom_site_fract_x
  _atom_site_fract_y
  _atom_site_fract_z
  _atom_site_thermal_displace_type
  _atom_site_B_iso_or_equiv
  _atom_site_type_symbol
  N1       1.0000 0.01328  0.76516  0.97514  Biso   1.000  N
  N2       1.0000 0.04776  0.60912  0.28403  Biso   1.000  N
  N3       1.0000 0.08117  0.77988  0.93503  Biso   1.000  N
  N4       1.0000 0.11524  0.62433  0.24676  Biso   1.000  N
  N5       1.0000 0.14154  0.19384  0.09720  Biso   1.000  N
  N6       1.0000 0.17572  0.04157  0.40183  Biso   1.000  N
  N7       1.0000 0.20922  0.22346  0.04846  Biso   1.000  N
  N8       1.0000 0.24225  0.07600  0.33979  Biso   1.000  N
  N9       1.0000 0.27563  0.25943  0.98400  Biso   1.000  N
  N10      1.0000 0.30998  0.11027  0.28565  Biso   1.000  N
  N11      1.0000 0.33621  0.67995  0.13418  Biso   1.000  N
  N12      1.0000 0.37024  0.52502  0.44442  Biso   1.000  N
  N13      1.0000 0.40384  0.70502  0.09926  Biso   1.000  N
  N14      1.0000 0.43658  0.54728  0.40410  Biso   1.000  N
  N15      1.0000 0.47025  0.72461  0.06285  Biso   1.000  N
  N16      1.0000 0.50418  0.56594  0.37987  Biso   1.000  N
  N17      1.0000 0.53018  0.13264  0.23543  Biso   1.000  N
  N18      1.0000 0.56461  0.98321  0.54132  Biso   1.000  N
  N19      1.0000 0.59923  0.15661  0.18801  Biso   1.000  N
  N20      1.0000 0.62515  0.60093  0.30868  Biso   1.000  N
  N21      1.0000 0.65980  0.78165  0.94962  Biso   1.000  N
  N22      1.0000 0.69259  0.62621  0.25251  Biso   1.000  N
  N23      1.0000 0.72620  0.79922  0.91401  Biso   1.000  N
  N24      1.0000 0.76017  0.63511  0.23459  Biso   1.000  N
  N25      1.0000 0.78624  0.20115  0.08943  Biso   1.000  N
  N26      1.0000 0.82013  0.03723  0.41271  Biso   1.000  N
  N27      1.0000 0.85396  0.20772  0.07648  Biso   1.000  N
  N28      1.0000 0.88673  0.04910  0.38656  Biso   1.000  N
  N29      1.0000 0.92035  0.22930  0.04041  Biso   1.000  N
  N30      1.0000 0.95324  0.07954  0.34178  Biso   1.000  N
  N31      1.0000 0.98832  0.26199  0.98087  Biso   1.000  N
