data_image0
_cell_length_a       27.7097
_cell_length_b       2.1636
_cell_length_c       2.46545
_cell_angle_alpha    65.5273
_cell_angle_beta     86.0335
_cell_angle_gamma    87.9363

_symmetry_space_group_name_H-M    "P 1"
_symmetry_int_tables_number       1

loop_
  _symmetry_equiv_pos_as_xyz
  'x, y, z'

loop_
  _atom_site_label
  _atom_site_occupancy
  _atom_site_fract_x
  _atom_site_fract_y
  _atom_site_fract_z
  _atom_site_thermal_displace_type
  _atom_site_B_iso_or_equiv
  _atom_site_type_symbol
  N1       1.0000 0.01425  0.70895  0.08275  Biso   1.000  N
  N2       1.0000 0.05213  0.54235  0.38899  Biso   1.000  N
  N3       1.0000 0.08910  0.70539  0.03727  Biso   1.000  N
  N4       1.0000 0.12681  0.53919  0.34399  Biso   1.000  N
  N5       1.0000 0.15614  0.10096  0.18504  Biso   1.000  N
  N6       1.0000 0.19379  0.93151  0.49047  Biso   1.000  N
  N7       1.0000 0.23091  0.09228  0.14111  Biso   1.000  N
  N8       1.0000 0.26743  0.92215  0.43530  Biso   1.000  N
  N9       1.0000 0.30446  0.08383  0.08020  Biso   1.000  N
  N10      1.0000 0.34074  0.90764  0.37993  Biso   1.000  N
  N11      1.0000 0.37794  0.06300  0.03630  Biso   1.000  N
  N12      1.0000 0.41543  0.88310  0.35356  Biso   1.000  N
  N13      1.0000 0.44426  0.43616  0.20627  Biso   1.000  N
  N14      1.0000 0.48181  0.25219  0.52846  Biso   1.000  N
  N15      1.0000 0.51877  0.40454  0.18824  Biso   1.000  N
  N16      1.0000 0.55508  0.22561  0.49231  Biso   1.000  N
  N17      1.0000 0.59327  0.38648  0.13242  Biso   1.000  N
  N18      1.0000 0.62194  0.81821  0.25283  Biso   1.000  N
  N19      1.0000 0.65998  0.98014  0.88979  Biso   1.000  N
  N20      1.0000 0.69642  0.80139  0.19075  Biso   1.000  N
  N21      1.0000 0.73325  0.95483  0.84696  Biso   1.000  N
  N22      1.0000 0.77097  0.77532  0.16309  Biso   1.000  N
  N23      1.0000 0.79981  0.33132  0.01344  Biso   1.000  N
  N24      1.0000 0.83734  0.15690  0.32611  Biso   1.000  N
  N25      1.0000 0.87437  0.32133  0.97799  Biso   1.000  N
  N26      1.0000 0.91067  0.15367  0.27680  Biso   1.000  N
  N27      1.0000 0.94767  0.32030  0.92569  Biso   1.000  N
  N28      1.0000 0.98526  0.15126  0.23395  Biso   1.000  N
