data_image0
_cell_length_a       35.4066
_cell_length_b       2.2026
_cell_length_c       2.43694
_cell_angle_alpha    63.1442
_cell_angle_beta     85.6855
_cell_angle_gamma    80.5458

_symmetry_space_group_name_H-M    "P 1"
_symmetry_int_tables_number       1

loop_
  _symmetry_equiv_pos_as_xyz
  'x, y, z'

loop_
  _atom_site_label
  _atom_site_occupancy
  _atom_site_fract_x
  _atom_site_fract_y
  _atom_site_fract_z
  _atom_site_thermal_displace_type
  _atom_site_B_iso_or_equiv
  _atom_site_type_symbol
  N1       1.0000 0.01491  0.94207  0.04800  Biso   1.000  N
  N2       1.0000 0.04442  0.71675  0.36857  Biso   1.000  N
  N3       1.0000 0.07377  0.82480  0.04355  Biso   1.000  N
  N4       1.0000 0.10329  0.62144  0.36194  Biso   1.000  N
  N5       1.0000 0.13252  0.74709  0.03541  Biso   1.000  N
  N6       1.0000 0.16202  0.55446  0.35240  Biso   1.000  N
  N7       1.0000 0.19126  0.67880  0.02574  Biso   1.000  N
  N8       1.0000 0.22078  0.47165  0.34415  Biso   1.000  N
  N9       1.0000 0.25015  0.57171  0.01899  Biso   1.000  N
  N10      1.0000 0.27964  0.33245  0.34005  Biso   1.000  N
  N11      1.0000 0.30911  0.39877  0.01772  Biso   1.000  N
  N12      1.0000 0.33845  0.13084  0.34108  Biso   1.000  N
  N13      1.0000 0.36795  0.17267  0.02180  Biso   1.000  N
  N14      1.0000 0.39715  0.89067  0.34696  Biso   1.000  N
  N15      1.0000 0.42665  0.92297  0.02916  Biso   1.000  N
  N16      1.0000 0.45580  0.63738  0.35501  Biso   1.000  N
  N17      1.0000 0.48529  0.66873  0.03731  Biso   1.000  N
  N18      1.0000 0.51446  0.38376  0.36280  Biso   1.000  N
  N19      1.0000 0.54394  0.41857  0.04414  Biso   1.000  N
  N20      1.0000 0.57316  0.13816  0.36845  Biso   1.000  N
  N21      1.0000 0.60263  0.18147  0.04826  Biso   1.000  N
  N22      1.0000 0.63195  0.91034  0.37141  Biso   1.000  N
  N23      1.0000 0.66142  0.96634  0.04975  Biso   1.000  N
  N24      1.0000 0.69082  0.70713  0.37194  Biso   1.000  N
  N25      1.0000 0.72028  0.77539  0.04924  Biso   1.000  N
  N26      1.0000 0.74972  0.52580  0.37102  Biso   1.000  N
  N27      1.0000 0.77918  0.60132  0.04816  Biso   1.000  N
  N28      1.0000 0.80863  0.35592  0.37012  Biso   1.000  N
  N29      1.0000 0.83812  0.43304  0.04768  Biso   1.000  N
  N30      1.0000 0.86755  0.18780  0.37005  Biso   1.000  N
  N31      1.0000 0.89706  0.26383  0.04820  Biso   1.000  N
  N32      1.0000 0.92649  0.01810  0.37085  Biso   1.000  N
  N33      1.0000 0.95599  0.09539  0.04901  Biso   1.000  N
  N34      1.0000 0.98545  0.85437  0.37108  Biso   1.000  N
