data_image0
_cell_length_a       24.4676
_cell_length_b       2.1555
_cell_length_c       2.47988
_cell_angle_alpha    65.5127
_cell_angle_beta     86.3986
_cell_angle_gamma    90.1852

_symmetry_space_group_name_H-M    "P 1"
_symmetry_int_tables_number       1

loop_
  _symmetry_equiv_pos_as_xyz
  'x, y, z'

loop_
  _atom_site_label
  _atom_site_occupancy
  _atom_site_fract_x
  _atom_site_fract_y
  _atom_site_fract_z
  _atom_site_thermal_displace_type
  _atom_site_B_iso_or_equiv
  _atom_site_type_symbol
  N1       1.0000 0.01783  0.79030  0.92150  Biso   1.000  N
  N2       1.0000 0.06077  0.63754  0.22621  Biso   1.000  N
  N3       1.0000 0.10265  0.81565  0.87154  Biso   1.000  N
  N4       1.0000 0.14559  0.66305  0.18062  Biso   1.000  N
  N5       1.0000 0.17805  0.24378  0.01101  Biso   1.000  N
  N6       1.0000 0.22149  0.07924  0.34464  Biso   1.000  N
  N7       1.0000 0.25392  0.65903  0.17633  Biso   1.000  N
  N8       1.0000 0.29674  0.50408  0.48949  Biso   1.000  N
  N9       1.0000 0.33890  0.68169  0.14011  Biso   1.000  N
  N10      1.0000 0.38127  0.52596  0.45291  Biso   1.000  N
  N11      1.0000 0.41428  0.10066  0.29536  Biso   1.000  N
  N12      1.0000 0.45698  0.94461  0.60609  Biso   1.000  N
  N13      1.0000 0.49881  0.12284  0.25808  Biso   1.000  N
  N14      1.0000 0.54019  0.97192  0.55187  Biso   1.000  N
  N15      1.0000 0.58329  0.16029  0.18019  Biso   1.000  N
  N16      1.0000 0.61564  0.60805  0.29666  Biso   1.000  N
  N17      1.0000 0.65905  0.79358  0.92939  Biso   1.000  N
  N18      1.0000 0.70011  0.63875  0.22629  Biso   1.000  N
  N19      1.0000 0.74201  0.81374  0.88069  Biso   1.000  N
  N20      1.0000 0.78456  0.65204  0.19654  Biso   1.000  N
  N21      1.0000 0.81716  0.22430  0.04038  Biso   1.000  N
  N22      1.0000 0.85980  0.06385  0.35463  Biso   1.000  N
  N23      1.0000 0.90168  0.24269  0.00734  Biso   1.000  N
  N24      1.0000 0.94265  0.09300  0.30276  Biso   1.000  N
  N25      1.0000 0.98656  0.28186  0.93440  Biso   1.000  N
