data_image0
_cell_length_a       33.6398
_cell_length_b       2.18163
_cell_length_c       2.44613
_cell_angle_alpha    63.4471
_cell_angle_beta     90.6455
_cell_angle_gamma    93.4012

_symmetry_space_group_name_H-M    "P 1"
_symmetry_int_tables_number       1

loop_
  _symmetry_equiv_pos_as_xyz
  'x, y, z'

loop_
  _atom_site_label
  _atom_site_occupancy
  _atom_site_fract_x
  _atom_site_fract_y
  _atom_site_fract_z
  _atom_site_thermal_displace_type
  _atom_site_B_iso_or_equiv
  _atom_site_type_symbol
  N1       1.0000 0.01299  0.68682  0.98385  Biso   1.000  N
  N2       1.0000 0.04462  0.54527  0.30929  Biso   1.000  N
  N3       1.0000 0.07532  0.71063  0.98066  Biso   1.000  N
  N4       1.0000 0.10580  0.53115  0.29032  Biso   1.000  N
  N5       1.0000 0.13635  0.67733  0.96008  Biso   1.000  N
  N6       1.0000 0.16679  0.49854  0.27056  Biso   1.000  N
  N7       1.0000 0.19769  0.65861  0.94596  Biso   1.000  N
  N8       1.0000 0.22886  0.50942  0.27772  Biso   1.000  N
  N9       1.0000 0.25296  0.09317  0.14450  Biso   1.000  N
  N10      1.0000 0.28418  0.94952  0.47591  Biso   1.000  N
  N11      1.0000 0.31509  0.13251  0.14986  Biso   1.000  N
  N12      1.0000 0.34556  0.99987  0.46144  Biso   1.000  N
  N13      1.0000 0.37619  0.19634  0.13009  Biso   1.000  N
  N14      1.0000 0.40709  0.08706  0.43619  Biso   1.000  N
  N15      1.0000 0.43745  0.30381  0.10246  Biso   1.000  N
  N16      1.0000 0.46822  0.21225  0.41087  Biso   1.000  N
  N17      1.0000 0.49870  0.43873  0.08295  Biso   1.000  N
  N18      1.0000 0.52933  0.34849  0.39550  Biso   1.000  N
  N19      1.0000 0.55998  0.57535  0.07008  Biso   1.000  N
  N20      1.0000 0.59042  0.47987  0.38437  Biso   1.000  N
  N21      1.0000 0.62115  0.69708  0.05809  Biso   1.000  N
  N22      1.0000 0.65179  0.58879  0.36999  Biso   1.000  N
  N23      1.0000 0.68239  0.79742  0.04196  Biso   1.000  N
  N24      1.0000 0.71299  0.68006  0.35435  Biso   1.000  N
  N25      1.0000 0.74381  0.88203  0.02769  Biso   1.000  N
  N26      1.0000 0.77425  0.75951  0.34230  Biso   1.000  N
  N27      1.0000 0.80516  0.95975  0.01892  Biso   1.000  N
  N28      1.0000 0.83551  0.83588  0.33651  Biso   1.000  N
  N29      1.0000 0.86648  0.03414  0.01369  Biso   1.000  N
  N30      1.0000 0.89697  0.90787  0.33037  Biso   1.000  N
  N31      1.0000 0.92768  0.10090  0.00712  Biso   1.000  N
  N32      1.0000 0.95820  0.96860  0.32491  Biso   1.000  N
  N33      1.0000 0.99004  0.16575  0.98644  Biso   1.000  N
