data_image0
_cell_length_a       34.8614
_cell_length_b       2.18705
_cell_length_c       2.44128
_cell_angle_alpha    63.3885
_cell_angle_beta     88.6772
_cell_angle_gamma    85.6711

_symmetry_space_group_name_H-M    "P 1"
_symmetry_int_tables_number       1

loop_
  _symmetry_equiv_pos_as_xyz
  'x, y, z'

loop_
  _atom_site_label
  _atom_site_occupancy
  _atom_site_fract_x
  _atom_site_fract_y
  _atom_site_fract_z
  _atom_site_thermal_displace_type
  _atom_site_B_iso_or_equiv
  _atom_site_type_symbol
  N1       1.0000 0.01356  0.07372  0.02803  Biso   1.000  N
  N2       1.0000 0.04323  0.86745  0.35357  Biso   1.000  N
  N3       1.0000 0.07269  0.99423  0.03608  Biso   1.000  N
  N4       1.0000 0.10244  0.81242  0.36184  Biso   1.000  N
  N5       1.0000 0.13181  0.96228  0.04310  Biso   1.000  N
  N6       1.0000 0.16163  0.80545  0.36382  Biso   1.000  N
  N7       1.0000 0.19080  0.97173  0.04012  Biso   1.000  N
  N8       1.0000 0.22059  0.82546  0.35705  Biso   1.000  N
  N9       1.0000 0.24984  0.99089  0.03209  Biso   1.000  N
  N10      1.0000 0.27964  0.83585  0.35004  Biso   1.000  N
  N11      1.0000 0.30893  0.98849  0.02759  Biso   1.000  N
  N12      1.0000 0.33874  0.80978  0.35056  Biso   1.000  N
  N13      1.0000 0.36822  0.93650  0.03341  Biso   1.000  N
  N14      1.0000 0.39793  0.72850  0.36086  Biso   1.000  N
  N15      1.0000 0.42743  0.83087  0.04508  Biso   1.000  N
  N16      1.0000 0.45700  0.60385  0.37205  Biso   1.000  N
  N17      1.0000 0.48668  0.69213  0.05768  Biso   1.000  N
  N18      1.0000 0.51605  0.45835  0.38682  Biso   1.000  N
  N19      1.0000 0.54576  0.54187  0.07534  Biso   1.000  N
  N20      1.0000 0.57508  0.30910  0.40950  Biso   1.000  N
  N21      1.0000 0.60496  0.38996  0.10403  Biso   1.000  N
  N22      1.0000 0.63423  0.15836  0.44178  Biso   1.000  N
  N23      1.0000 0.66388  0.24407  0.13376  Biso   1.000  N
  N24      1.0000 0.69344  0.02521  0.46578  Biso   1.000  N
  N25      1.0000 0.72380  0.14602  0.13598  Biso   1.000  N
  N26      1.0000 0.74691  0.54915  0.27085  Biso   1.000  N
  N27      1.0000 0.77725  0.66873  0.94059  Biso   1.000  N
  N28      1.0000 0.80681  0.44456  0.27216  Biso   1.000  N
  N29      1.0000 0.83640  0.51995  0.96400  Biso   1.000  N
  N30      1.0000 0.86565  0.27922  0.30142  Biso   1.000  N
  N31      1.0000 0.89547  0.35144  0.99554  Biso   1.000  N
  N32      1.0000 0.92480  0.11401  0.32893  Biso   1.000  N
  N33      1.0000 0.95445  0.19887  0.01625  Biso   1.000  N
  N34      1.0000 0.98390  0.97152  0.34429  Biso   1.000  N
