data_image0
_cell_length_a       24.702
_cell_length_b       2.14331
_cell_length_c       2.46875
_cell_angle_alpha    65.7693
_cell_angle_beta     86.8731
_cell_angle_gamma    87.5232

_symmetry_space_group_name_H-M    "P 1"
_symmetry_int_tables_number       1

loop_
  _symmetry_equiv_pos_as_xyz
  'x, y, z'

loop_
  _atom_site_label
  _atom_site_occupancy
  _atom_site_fract_x
  _atom_site_fract_y
  _atom_site_fract_z
  _atom_site_thermal_displace_type
  _atom_site_B_iso_or_equiv
  _atom_site_type_symbol
  N1       1.0000 0.01740  0.74971  0.97894  Biso   1.000  N
  N2       1.0000 0.06031  0.57693  0.28437  Biso   1.000  N
  N3       1.0000 0.10199  0.72701  0.94182  Biso   1.000  N
  N4       1.0000 0.14399  0.55729  0.25361  Biso   1.000  N
  N5       1.0000 0.17745  0.11870  0.10286  Biso   1.000  N
  N6       1.0000 0.21945  0.94732  0.41570  Biso   1.000  N
  N7       1.0000 0.26137  0.09505  0.07917  Biso   1.000  N
  N8       1.0000 0.30373  0.92291  0.39454  Biso   1.000  N
  N9       1.0000 0.33604  0.47678  0.25528  Biso   1.000  N
  N10      1.0000 0.37878  0.30975  0.56699  Biso   1.000  N
  N11      1.0000 0.42167  0.45043  0.22260  Biso   1.000  N
  N12      1.0000 0.45382  0.87729  0.34001  Biso   1.000  N
  N13      1.0000 0.49633  0.03112  0.98390  Biso   1.000  N
  N14      1.0000 0.53763  0.85540  0.28629  Biso   1.000  N
  N15      1.0000 0.57890  0.00754  0.94473  Biso   1.000  N
  N16      1.0000 0.61981  0.82350  0.25789  Biso   1.000  N
  N17      1.0000 0.66131  0.96920  0.92449  Biso   1.000  N
  N18      1.0000 0.70375  0.78318  0.24804  Biso   1.000  N
  N19      1.0000 0.73575  0.33170  0.10641  Biso   1.000  N
  N20      1.0000 0.77842  0.14751  0.42681  Biso   1.000  N
  N21      1.0000 0.81968  0.29728  0.08690  Biso   1.000  N
  N22      1.0000 0.86088  0.11716  0.39398  Biso   1.000  N
  N23      1.0000 0.90197  0.27400  0.04640  Biso   1.000  N
  N24      1.0000 0.94335  0.10353  0.34609  Biso   1.000  N
  N25      1.0000 0.98621  0.26219  0.98716  Biso   1.000  N
