data_image0
_cell_length_a       27.7771
_cell_length_b       2.15548
_cell_length_c       2.46172
_cell_angle_alpha    65.6874
_cell_angle_beta     85.87
_cell_angle_gamma    87.7054

_symmetry_space_group_name_H-M    "P 1"
_symmetry_int_tables_number       1

loop_
  _symmetry_equiv_pos_as_xyz
  'x, y, z'

loop_
  _atom_site_label
  _atom_site_occupancy
  _atom_site_fract_x
  _atom_site_fract_y
  _atom_site_fract_z
  _atom_site_thermal_displace_type
  _atom_site_B_iso_or_equiv
  _atom_site_type_symbol
  N1       1.0000 0.01335  0.60958  0.30904  Biso   1.000  N
  N2       1.0000 0.05090  0.42897  0.62650  Biso   1.000  N
  N3       1.0000 0.08790  0.58516  0.28318  Biso   1.000  N
  N4       1.0000 0.12418  0.40940  0.58511  Biso   1.000  N
  N5       1.0000 0.16241  0.57257  0.22165  Biso   1.000  N
  N6       1.0000 0.19102  0.00372  0.34062  Biso   1.000  N
  N7       1.0000 0.22902  0.16819  0.97563  Biso   1.000  N
  N8       1.0000 0.26564  0.99321  0.27157  Biso   1.000  N
  N9       1.0000 0.30235  0.15106  0.92145  Biso   1.000  N
  N10      1.0000 0.33883  0.97072  0.22432  Biso   1.000  N
  N11      1.0000 0.37602  0.12121  0.88214  Biso   1.000  N
  N12      1.0000 0.41214  0.93877  0.19120  Biso   1.000  N
  N13      1.0000 0.44916  0.09089  0.84890  Biso   1.000  N
  N14      1.0000 0.48682  0.91317  0.16396  Biso   1.000  N
  N15      1.0000 0.51564  0.46857  0.01230  Biso   1.000  N
  N16      1.0000 0.55328  0.29488  0.32314  Biso   1.000  N
  N17      1.0000 0.59032  0.46122  0.97019  Biso   1.000  N
  N18      1.0000 0.62652  0.29676  0.26628  Biso   1.000  N
  N19      1.0000 0.66367  0.46354  0.91133  Biso   1.000  N
  N20      1.0000 0.70123  0.29811  0.21803  Biso   1.000  N
  N21      1.0000 0.73040  0.85904  0.06514  Biso   1.000  N
  N22      1.0000 0.76807  0.69644  0.36904  Biso   1.000  N
  N23      1.0000 0.80536  0.85348  0.02114  Biso   1.000  N
  N24      1.0000 0.84271  0.68734  0.32862  Biso   1.000  N
  N25      1.0000 0.87232  0.25032  0.17489  Biso   1.000  N
  N26      1.0000 0.90946  0.07831  0.48869  Biso   1.000  N
  N27      1.0000 0.94694  0.23134  0.14594  Biso   1.000  N
  N28      1.0000 0.98433  0.05404  0.45997  Biso   1.000  N
