data_image0
_cell_length_a       28.5964
_cell_length_b       2.15017
_cell_length_c       2.46944
_cell_angle_alpha    65.6699
_cell_angle_beta     93.1353
_cell_angle_gamma    90.0027

_symmetry_space_group_name_H-M    "P 1"
_symmetry_int_tables_number       1

loop_
  _symmetry_equiv_pos_as_xyz
  'x, y, z'

loop_
  _atom_site_label
  _atom_site_occupancy
  _atom_site_fract_x
  _atom_site_fract_y
  _atom_site_fract_z
  _atom_site_thermal_displace_type
  _atom_site_B_iso_or_equiv
  _atom_site_type_symbol
  N1       1.0000 0.01234  0.69864  0.12961  Biso   1.000  N
  N2       1.0000 0.04973  0.52035  0.49112  Biso   1.000  N
  N3       1.0000 0.08510  0.67301  0.19060  Biso   1.000  N
  N4       1.0000 0.12078  0.49432  0.54154  Biso   1.000  N
  N5       1.0000 0.15625  0.65210  0.23818  Biso   1.000  N
  N6       1.0000 0.19203  0.47708  0.58320  Biso   1.000  N
  N7       1.0000 0.22879  0.63589  0.26985  Biso   1.000  N
  N8       1.0000 0.25660  0.06585  0.42049  Biso   1.000  N
  N9       1.0000 0.29325  0.21720  0.11059  Biso   1.000  N
  N10      1.0000 0.32921  0.03834  0.45742  Biso   1.000  N
  N11      1.0000 0.36559  0.18711  0.14987  Biso   1.000  N
  N12      1.0000 0.39421  0.60792  0.30946  Biso   1.000  N
  N13      1.0000 0.43062  0.74948  0.00817  Biso   1.000  N
  N14      1.0000 0.46680  0.56891  0.35570  Biso   1.000  N
  N15      1.0000 0.50317  0.71050  0.05363  Biso   1.000  N
  N16      1.0000 0.53182  0.13375  0.20851  Biso   1.000  N
  N17      1.0000 0.56793  0.28424  0.89695  Biso   1.000  N
  N18      1.0000 0.60415  0.10848  0.24117  Biso   1.000  N
  N19      1.0000 0.64055  0.26043  0.92945  Biso   1.000  N
  N20      1.0000 0.66862  0.68950  0.08270  Biso   1.000  N
  N21      1.0000 0.70521  0.84980  0.76606  Biso   1.000  N
  N22      1.0000 0.74092  0.67357  0.10975  Biso   1.000  N
  N23      1.0000 0.77633  0.82895  0.80872  Biso   1.000  N
  N24      1.0000 0.81321  0.64641  0.17307  Biso   1.000  N
  N25      1.0000 0.84096  0.20066  0.05212  Biso   1.000  N
  N26      1.0000 0.87809  0.02279  0.41115  Biso   1.000  N
  N27      1.0000 0.91325  0.19064  0.10724  Biso   1.000  N
  N28      1.0000 0.94892  0.02896  0.44872  Biso   1.000  N
  N29      1.0000 0.98555  0.19764  0.12995  Biso   1.000  N
