data_image0
_cell_length_a       31.6134
_cell_length_b       2.16092
_cell_length_c       2.46795
_cell_angle_alpha    65.5133
_cell_angle_beta     86.9153
_cell_angle_gamma    90.0166

_symmetry_space_group_name_H-M    "P 1"
_symmetry_int_tables_number       1

loop_
  _symmetry_equiv_pos_as_xyz
  'x, y, z'

loop_
  _atom_site_label
  _atom_site_occupancy
  _atom_site_fract_x
  _atom_site_fract_y
  _atom_site_fract_z
  _atom_site_thermal_displace_type
  _atom_site_B_iso_or_equiv
  _atom_site_type_symbol
  N1       1.0000 0.01171  0.67582  0.17300  Biso   1.000  N
  N2       1.0000 0.04512  0.52679  0.47572  Biso   1.000  N
  N3       1.0000 0.07722  0.70313  0.12344  Biso   1.000  N
  N4       1.0000 0.10954  0.54958  0.41363  Biso   1.000  N
  N5       1.0000 0.14139  0.73416  0.05104  Biso   1.000  N
  N6       1.0000 0.17398  0.58675  0.33413  Biso   1.000  N
  N7       1.0000 0.20601  0.77263  0.97427  Biso   1.000  N
  N8       1.0000 0.23807  0.62137  0.26976  Biso   1.000  N
  N9       1.0000 0.27031  0.80273  0.91987  Biso   1.000  N
  N10      1.0000 0.30357  0.64374  0.23315  Biso   1.000  N
  N11      1.0000 0.32845  0.21802  0.06787  Biso   1.000  N
  N12      1.0000 0.36205  0.04559  0.41119  Biso   1.000  N
  N13      1.0000 0.38680  0.62013  0.24562  Biso   1.000  N
  N14      1.0000 0.42018  0.45503  0.56587  Biso   1.000  N
  N15      1.0000 0.45233  0.63250  0.22000  Biso   1.000  N
  N16      1.0000 0.48418  0.47702  0.52310  Biso   1.000  N
  N17      1.0000 0.51771  0.65863  0.16245  Biso   1.000  N
  N18      1.0000 0.54282  0.10237  0.28537  Biso   1.000  N
  N19      1.0000 0.57626  0.28331  0.92385  Biso   1.000  N
  N20      1.0000 0.60831  0.12693  0.22657  Biso   1.000  N
  N21      1.0000 0.64041  0.30181  0.88091  Biso   1.000  N
  N22      1.0000 0.67374  0.14101  0.19757  Biso   1.000  N
  N23      1.0000 0.69890  0.71263  0.04421  Biso   1.000  N
  N24      1.0000 0.73194  0.55526  0.35678  Biso   1.000  N
  N25      1.0000 0.76444  0.73829  0.00415  Biso   1.000  N
  N26      1.0000 0.79620  0.59073  0.29851  Biso   1.000  N
  N27      1.0000 0.82880  0.77509  0.94141  Biso   1.000  N
  N28      1.0000 0.86181  0.63047  0.24354  Biso   1.000  N
  N29      1.0000 0.88745  0.21153  0.08423  Biso   1.000  N
  N30      1.0000 0.92078  0.06779  0.38471  Biso   1.000  N
  N31      1.0000 0.95301  0.24358  0.03114  Biso   1.000  N
  N32      1.0000 0.98649  0.09561  0.33294  Biso   1.000  N
