data_image0
_cell_length_a       27.7022
_cell_length_b       2.16646
_cell_length_c       2.48015
_cell_angle_alpha    65.2863
_cell_angle_beta     85.9127
_cell_angle_gamma    92.0445

_symmetry_space_group_name_H-M    "P 1"
_symmetry_int_tables_number       1

loop_
  _symmetry_equiv_pos_as_xyz
  'x, y, z'

loop_
  _atom_site_label
  _atom_site_occupancy
  _atom_site_fract_x
  _atom_site_fract_y
  _atom_site_fract_z
  _atom_site_thermal_displace_type
  _atom_site_B_iso_or_equiv
  _atom_site_type_symbol
  N1       1.0000 0.01405  0.63150  0.09378  Biso   1.000  N
  N2       1.0000 0.05267  0.48284  0.42380  Biso   1.000  N
  N3       1.0000 0.08116  0.07859  0.24573  Biso   1.000  N
  N4       1.0000 0.11896  0.94091  0.54719  Biso   1.000  N
  N5       1.0000 0.15615  0.13355  0.18575  Biso   1.000  N
  N6       1.0000 0.19252  0.98737  0.47002  Biso   1.000  N
  N7       1.0000 0.22963  0.17818  0.10266  Biso   1.000  N
  N8       1.0000 0.26637  0.03212  0.37971  Biso   1.000  N
  N9       1.0000 0.30346  0.22145  0.01235  Biso   1.000  N
  N10      1.0000 0.33977  0.06807  0.29836  Biso   1.000  N
  N11      1.0000 0.37716  0.25040  0.94318  Biso   1.000  N
  N12      1.0000 0.41478  0.11072  0.24432  Biso   1.000  N
  N13      1.0000 0.44362  0.69837  0.08745  Biso   1.000  N
  N14      1.0000 0.48141  0.55735  0.38957  Biso   1.000  N
  N15      1.0000 0.51860  0.74969  0.03143  Biso   1.000  N
  N16      1.0000 0.55635  0.60959  0.33318  Biso   1.000  N
  N17      1.0000 0.58527  0.19884  0.17403  Biso   1.000  N
  N18      1.0000 0.62297  0.06784  0.47187  Biso   1.000  N
  N19      1.0000 0.66024  0.27841  0.11337  Biso   1.000  N
  N20      1.0000 0.69679  0.17176  0.39499  Biso   1.000  N
  N21      1.0000 0.73355  0.40672  0.02329  Biso   1.000  N
  N22      1.0000 0.77058  0.31959  0.29420  Biso   1.000  N
  N23      1.0000 0.80731  0.56111  0.92308  Biso   1.000  N
  N24      1.0000 0.84387  0.47438  0.20281  Biso   1.000  N
  N25      1.0000 0.88083  0.70429  0.83826  Biso   1.000  N
  N26      1.0000 0.91875  0.57958  0.13599  Biso   1.000  N
  N27      1.0000 0.94732  0.17731  0.95515  Biso   1.000  N
  N28      1.0000 0.98587  0.02946  0.28449  Biso   1.000  N
