data_image0
_cell_length_a       34.6551
_cell_length_b       2.15386
_cell_length_c       2.46187
_cell_angle_alpha    65.8822
_cell_angle_beta     90.7952
_cell_angle_gamma    89.9746

_symmetry_space_group_name_H-M    "P 1"
_symmetry_int_tables_number       1

loop_
  _symmetry_equiv_pos_as_xyz
  'x, y, z'

loop_
  _atom_site_label
  _atom_site_occupancy
  _atom_site_fract_x
  _atom_site_fract_y
  _atom_site_fract_z
  _atom_site_thermal_displace_type
  _atom_site_B_iso_or_equiv
  _atom_site_type_symbol
  N1       1.0000 0.01068  0.76057  0.98346  Biso   1.000  N
  N2       1.0000 0.04107  0.58367  0.33296  Biso   1.000  N
  N3       1.0000 0.07058  0.73537  0.02432  Biso   1.000  N
  N4       1.0000 0.09969  0.55893  0.36387  Biso   1.000  N
  N5       1.0000 0.12901  0.72063  0.04501  Biso   1.000  N
  N6       1.0000 0.15846  0.55368  0.37232  Biso   1.000  N
  N7       1.0000 0.18857  0.72198  0.03715  Biso   1.000  N
  N8       1.0000 0.21156  0.16001  0.17623  Biso   1.000  N
  N9       1.0000 0.24170  0.32856  0.84298  Biso   1.000  N
  N10      1.0000 0.27113  0.16123  0.16862  Biso   1.000  N
  N11      1.0000 0.30012  0.32360  0.84877  Biso   1.000  N
  N12      1.0000 0.33059  0.15022  0.19045  Biso   1.000  N
  N13      1.0000 0.35349  0.71032  0.05534  Biso   1.000  N
  N14      1.0000 0.38393  0.54199  0.39114  Biso   1.000  N
  N15      1.0000 0.41313  0.70769  0.06906  Biso   1.000  N
  N16      1.0000 0.44245  0.54532  0.38945  Biso   1.000  N
  N17      1.0000 0.47171  0.72046  0.05795  Biso   1.000  N
  N18      1.0000 0.50107  0.55966  0.37616  Biso   1.000  N
  N19      1.0000 0.53046  0.71845  0.05622  Biso   1.000  N
  N20      1.0000 0.56086  0.56179  0.38694  Biso   1.000  N
  N21      1.0000 0.58400  0.13477  0.25556  Biso   1.000  N
  N22      1.0000 0.61448  0.99217  0.58299  Biso   1.000  N
  N23      1.0000 0.64491  0.13196  0.26440  Biso   1.000  N
  N24      1.0000 0.66793  0.56100  0.40019  Biso   1.000  N
  N25      1.0000 0.69815  0.71862  0.07322  Biso   1.000  N
  N26      1.0000 0.72767  0.55615  0.39997  Biso   1.000  N
  N27      1.0000 0.75690  0.71509  0.08764  Biso   1.000  N
  N28      1.0000 0.78619  0.53543  0.42848  Biso   1.000  N
  N29      1.0000 0.81551  0.69034  0.11934  Biso   1.000  N
  N30      1.0000 0.84491  0.51968  0.45329  Biso   1.000  N
  N31      1.0000 0.87516  0.67824  0.13382  Biso   1.000  N
  N32      1.0000 0.89850  0.11052  0.28349  Biso   1.000  N
  N33      1.0000 0.92884  0.27145  0.95873  Biso   1.000  N
  N34      1.0000 0.95791  0.10553  0.29563  Biso   1.000  N
  N35      1.0000 0.98869  0.26741  0.96985  Biso   1.000  N
