data_image0
_cell_length_a       31.7221
_cell_length_b       2.14737
_cell_length_c       2.46014
_cell_angle_alpha    65.8091
_cell_angle_beta     88.5337
_cell_angle_gamma    90.1512

_symmetry_space_group_name_H-M    "P 1"
_symmetry_int_tables_number       1

loop_
  _symmetry_equiv_pos_as_xyz
  'x, y, z'

loop_
  _atom_site_label
  _atom_site_occupancy
  _atom_site_fract_x
  _atom_site_fract_y
  _atom_site_fract_z
  _atom_site_thermal_displace_type
  _atom_site_B_iso_or_equiv
  _atom_site_type_symbol
  N1       1.0000 0.01263  0.66860  0.20409  Biso   1.000  N
  N2       1.0000 0.04554  0.51772  0.52083  Biso   1.000  N
  N3       1.0000 0.07784  0.68685  0.18356  Biso   1.000  N
  N4       1.0000 0.11104  0.53509  0.49983  Biso   1.000  N
  N5       1.0000 0.13633  0.10817  0.35163  Biso   1.000  N
  N6       1.0000 0.16940  0.94543  0.67786  Biso   1.000  N
  N7       1.0000 0.20167  0.10799  0.34503  Biso   1.000  N
  N8       1.0000 0.23360  0.93673  0.66196  Biso   1.000  N
  N9       1.0000 0.26570  0.10325  0.32300  Biso   1.000  N
  N10      1.0000 0.29789  0.94408  0.63216  Biso   1.000  N
  N11      1.0000 0.33110  0.11303  0.28292  Biso   1.000  N
  N12      1.0000 0.35643  0.54793  0.41295  Biso   1.000  N
  N13      1.0000 0.38974  0.71420  0.07077  Biso   1.000  N
  N14      1.0000 0.42195  0.55785  0.38354  Biso   1.000  N
  N15      1.0000 0.45515  0.72675  0.03886  Biso   1.000  N
  N16      1.0000 0.48047  0.16380  0.16701  Biso   1.000  N
  N17      1.0000 0.51370  0.33335  0.82003  Biso   1.000  N
  N18      1.0000 0.54575  0.17247  0.12972  Biso   1.000  N
  N19      1.0000 0.57781  0.33732  0.79260  Biso   1.000  N
  N20      1.0000 0.60981  0.16835  0.10610  Biso   1.000  N
  N21      1.0000 0.64198  0.33559  0.76988  Biso   1.000  N
  N22      1.0000 0.67397  0.17158  0.08250  Biso   1.000  N
  N23      1.0000 0.70602  0.34321  0.74699  Biso   1.000  N
  N24      1.0000 0.73912  0.18395  0.06986  Biso   1.000  N
  N25      1.0000 0.76440  0.75626  0.92316  Biso   1.000  N
  N26      1.0000 0.79751  0.60715  0.23972  Biso   1.000  N
  N27      1.0000 0.82985  0.77739  0.90275  Biso   1.000  N
  N28      1.0000 0.86279  0.63068  0.21698  Biso   1.000  N
  N29      1.0000 0.88859  0.21108  0.06567  Biso   1.000  N
  N30      1.0000 0.92148  0.06691  0.37927  Biso   1.000  N
  N31      1.0000 0.95392  0.23711  0.04255  Biso   1.000  N
  N32      1.0000 0.98683  0.09012  0.35622  Biso   1.000  N
