data_image0
_cell_length_a       32.4658
_cell_length_b       2.20084
_cell_length_c       2.44389
_cell_angle_alpha    63.2142
_cell_angle_beta     89.4645
_cell_angle_gamma    91.8247

_symmetry_space_group_name_H-M    "P 1"
_symmetry_int_tables_number       1

loop_
  _symmetry_equiv_pos_as_xyz
  'x, y, z'

loop_
  _atom_site_label
  _atom_site_occupancy
  _atom_site_fract_x
  _atom_site_fract_y
  _atom_site_fract_z
  _atom_site_thermal_displace_type
  _atom_site_B_iso_or_equiv
  _atom_site_type_symbol
  N1       1.0000 0.01982  0.95005  0.87656  Biso   1.000  N
  N2       1.0000 0.05120  0.76403  0.18215  Biso   1.000  N
  N3       1.0000 0.08312  0.92075  0.84803  Biso   1.000  N
  N4       1.0000 0.11512  0.76491  0.18086  Biso   1.000  N
  N5       1.0000 0.13991  0.35321  0.03266  Biso   1.000  N
  N6       1.0000 0.17231  0.18888  0.39354  Biso   1.000  N
  N7       1.0000 0.19710  0.77796  0.24454  Biso   1.000  N
  N8       1.0000 0.22917  0.63157  0.57585  Biso   1.000  N
  N9       1.0000 0.26102  0.82907  0.23906  Biso   1.000  N
  N10      1.0000 0.29267  0.71913  0.54086  Biso   1.000  N
  N11      1.0000 0.32407  0.92949  0.19991  Biso   1.000  N
  N12      1.0000 0.35612  0.82467  0.50066  Biso   1.000  N
  N13      1.0000 0.38754  0.03176  0.16590  Biso   1.000  N
  N14      1.0000 0.41943  0.91942  0.47433  Biso   1.000  N
  N15      1.0000 0.45086  0.12729  0.14098  Biso   1.000  N
  N16      1.0000 0.48282  0.02702  0.44421  Biso   1.000  N
  N17      1.0000 0.51420  0.24545  0.10577  Biso   1.000  N
  N18      1.0000 0.54605  0.16011  0.40491  Biso   1.000  N
  N19      1.0000 0.57737  0.38851  0.06511  Biso   1.000  N
  N20      1.0000 0.60916  0.30577  0.36744  Biso   1.000  N
  N21      1.0000 0.64050  0.54237  0.03314  Biso   1.000  N
  N22      1.0000 0.67215  0.46475  0.33962  Biso   1.000  N
  N23      1.0000 0.70349  0.70453  0.00722  Biso   1.000  N
  N24      1.0000 0.73517  0.62677  0.31130  Biso   1.000  N
  N25      1.0000 0.76657  0.85702  0.97406  Biso   1.000  N
  N26      1.0000 0.79829  0.76316  0.27730  Biso   1.000  N
  N27      1.0000 0.82988  0.97250  0.94319  Biso   1.000  N
  N28      1.0000 0.86168  0.84114  0.25204  Biso   1.000  N
  N29      1.0000 0.89334  0.01374  0.92305  Biso   1.000  N
  N30      1.0000 0.92499  0.84915  0.23683  Biso   1.000  N
  N31      1.0000 0.95656  0.99496  0.90675  Biso   1.000  N
  N32      1.0000 0.98832  0.81083  0.21218  Biso   1.000  N
