data_image0
_cell_length_a       27.068
_cell_length_b       2.1633
_cell_length_c       2.46986
_cell_angle_alpha    65.4515
_cell_angle_beta     90.7068
_cell_angle_gamma    96.1911

_symmetry_space_group_name_H-M    "P 1"
_symmetry_int_tables_number       1

loop_
  _symmetry_equiv_pos_as_xyz
  'x, y, z'

loop_
  _atom_site_label
  _atom_site_occupancy
  _atom_site_fract_x
  _atom_site_fract_y
  _atom_site_fract_z
  _atom_site_thermal_displace_type
  _atom_site_B_iso_or_equiv
  _atom_site_type_symbol
  N1       1.0000 0.01532  0.78839  0.98428  Biso   1.000  N
  N2       1.0000 0.05454  0.67401  0.30642  Biso   1.000  N
  N3       1.0000 0.09248  0.88627  0.96996  Biso   1.000  N
  N4       1.0000 0.12988  0.76669  0.28154  Biso   1.000  N
  N5       1.0000 0.16798  0.98701  0.93850  Biso   1.000  N
  N6       1.0000 0.20566  0.87918  0.24179  Biso   1.000  N
  N7       1.0000 0.24373  0.10639  0.89658  Biso   1.000  N
  N8       1.0000 0.28109  0.00162  0.20624  Biso   1.000  N
  N9       1.0000 0.31906  0.23055  0.86674  Biso   1.000  N
  N10      1.0000 0.35815  0.12352  0.19120  Biso   1.000  N
  N11      1.0000 0.38717  0.73512  0.03367  Biso   1.000  N
  N12      1.0000 0.42677  0.61753  0.38334  Biso   1.000  N
  N13      1.0000 0.45579  0.23072  0.22348  Biso   1.000  N
  N14      1.0000 0.49508  0.13426  0.54440  Biso   1.000  N
  N15      1.0000 0.53267  0.39189  0.20215  Biso   1.000  N
  N16      1.0000 0.57009  0.33104  0.50899  Biso   1.000  N
  N17      1.0000 0.60791  0.59729  0.16359  Biso   1.000  N
  N18      1.0000 0.64565  0.53026  0.46485  Biso   1.000  N
  N19      1.0000 0.68321  0.78693  0.11977  Biso   1.000  N
  N20      1.0000 0.72109  0.69878  0.42641  Biso   1.000  N
  N21      1.0000 0.75887  0.93350  0.08961  Biso   1.000  N
  N22      1.0000 0.79664  0.82129  0.40331  Biso   1.000  N
  N23      1.0000 0.83435  0.04016  0.06813  Biso   1.000  N
  N24      1.0000 0.87233  0.91987  0.37976  Biso   1.000  N
  N25      1.0000 0.90998  0.13528  0.03899  Biso   1.000  N
  N26      1.0000 0.94752  0.02010  0.34741  Biso   1.000  N
  N27      1.0000 0.98701  0.24484  0.99385  Biso   1.000  N
