data_image0
_cell_length_a       33.8105
_cell_length_b       2.15447
_cell_length_c       2.46059
_cell_angle_alpha    66.0241
_cell_angle_beta     88.1884
_cell_angle_gamma    87.58

_symmetry_space_group_name_H-M    "P 1"
_symmetry_int_tables_number       1

loop_
  _symmetry_equiv_pos_as_xyz
  'x, y, z'

loop_
  _atom_site_label
  _atom_site_occupancy
  _atom_site_fract_x
  _atom_site_fract_y
  _atom_site_fract_z
  _atom_site_thermal_displace_type
  _atom_site_B_iso_or_equiv
  _atom_site_type_symbol
  N1       1.0000 0.01243  0.72974  0.99267  Biso   1.000  N
  N2       1.0000 0.04332  0.54998  0.32338  Biso   1.000  N
  N3       1.0000 0.07356  0.71168  0.99295  Biso   1.000  N
  N4       1.0000 0.10337  0.54339  0.31066  Biso   1.000  N
  N5       1.0000 0.13356  0.70488  0.97899  Biso   1.000  N
  N6       1.0000 0.16451  0.52773  0.30666  Biso   1.000  N
  N7       1.0000 0.18819  0.07946  0.16258  Biso   1.000  N
  N8       1.0000 0.21947  0.90449  0.48284  Biso   1.000  N
  N9       1.0000 0.24948  0.06455  0.14803  Biso   1.000  N
  N10      1.0000 0.27943  0.89791  0.45949  Biso   1.000  N
  N11      1.0000 0.30974  0.06575  0.12182  Biso   1.000  N
  N12      1.0000 0.33951  0.89487  0.43770  Biso   1.000  N
  N13      1.0000 0.36977  0.05151  0.10892  Biso   1.000  N
  N14      1.0000 0.40069  0.86842  0.43902  Biso   1.000  N
  N15      1.0000 0.42432  0.41645  0.29784  Biso   1.000  N
  N16      1.0000 0.45532  0.22930  0.63321  Biso   1.000  N
  N17      1.0000 0.48550  0.37979  0.30618  Biso   1.000  N
  N18      1.0000 0.51525  0.20008  0.62772  Biso   1.000  N
  N19      1.0000 0.54673  0.35037  0.28692  Biso   1.000  N
  N20      1.0000 0.57022  0.77443  0.42012  Biso   1.000  N
  N21      1.0000 0.60122  0.92718  0.07541  Biso   1.000  N
  N22      1.0000 0.63150  0.74512  0.39526  Biso   1.000  N
  N23      1.0000 0.66129  0.89681  0.06620  Biso   1.000  N
  N24      1.0000 0.69157  0.71298  0.38795  Biso   1.000  N
  N25      1.0000 0.72254  0.86272  0.04532  Biso   1.000  N
  N26      1.0000 0.74613  0.28848  0.17544  Biso   1.000  N
  N27      1.0000 0.77738  0.43697  0.83439  Biso   1.000  N
  N28      1.0000 0.80729  0.25585  0.15272  Biso   1.000  N
  N29      1.0000 0.83742  0.40940  0.82103  Biso   1.000  N
  N30      1.0000 0.86746  0.23005  0.13944  Biso   1.000  N
  N31      1.0000 0.89766  0.38627  0.80856  Biso   1.000  N
  N32      1.0000 0.92763  0.20913  0.12880  Biso   1.000  N
  N33      1.0000 0.95772  0.36253  0.80063  Biso   1.000  N
  N34      1.0000 0.98882  0.18171  0.13113  Biso   1.000  N
