data_image0
_cell_length_a       25.4554
_cell_length_b       2.15988
_cell_length_c       2.47681
_cell_angle_alpha    65.5596
_cell_angle_beta     87.9204
_cell_angle_gamma    90.0888

_symmetry_space_group_name_H-M    "P 1"
_symmetry_int_tables_number       1

loop_
  _symmetry_equiv_pos_as_xyz
  'x, y, z'

loop_
  _atom_site_label
  _atom_site_occupancy
  _atom_site_fract_x
  _atom_site_fract_y
  _atom_site_fract_z
  _atom_site_thermal_displace_type
  _atom_site_B_iso_or_equiv
  _atom_site_type_symbol
  N1       1.0000 0.01292  0.63283  0.21797  Biso   1.000  N
  N2       1.0000 0.05476  0.46540  0.54338  Biso   1.000  N
  N3       1.0000 0.09433  0.64012  0.20163  Biso   1.000  N
  N4       1.0000 0.13416  0.48278  0.50647  Biso   1.000  N
  N5       1.0000 0.17545  0.66562  0.14812  Biso   1.000  N
  N6       1.0000 0.20676  0.10969  0.27332  Biso   1.000  N
  N7       1.0000 0.24784  0.29396  0.91176  Biso   1.000  N
  N8       1.0000 0.28787  0.13899  0.21432  Biso   1.000  N
  N9       1.0000 0.32763  0.31418  0.87319  Biso   1.000  N
  N10      1.0000 0.36897  0.15274  0.19380  Biso   1.000  N
  N11      1.0000 0.40043  0.72411  0.04276  Biso   1.000  N
  N12      1.0000 0.44133  0.56452  0.36766  Biso   1.000  N
  N13      1.0000 0.48176  0.73879  0.03189  Biso   1.000  N
  N14      1.0000 0.52265  0.57920  0.35676  Biso   1.000  N
  N15      1.0000 0.55412  0.15045  0.20589  Biso   1.000  N
  N16      1.0000 0.59547  0.98845  0.52648  Biso   1.000  N
  N17      1.0000 0.63522  0.16218  0.18551  Biso   1.000  N
  N18      1.0000 0.67527  0.00555  0.48821  Biso   1.000  N
  N19      1.0000 0.71635  0.18918  0.12665  Biso   1.000  N
  N20      1.0000 0.74763  0.63298  0.25201  Biso   1.000  N
  N21      1.0000 0.78891  0.81559  0.89365  Biso   1.000  N
  N22      1.0000 0.82874  0.65788  0.19865  Biso   1.000  N
  N23      1.0000 0.86828  0.83230  0.85706  Biso   1.000  N
  N24      1.0000 0.91011  0.66485  0.18243  Biso   1.000  N
  N25      1.0000 0.94057  0.23885  0.02060  Biso   1.000  N
  N26      1.0000 0.98247  0.05881  0.37984  Biso   1.000  N
