data_image0
_cell_length_a       26.4991
_cell_length_b       2.14465
_cell_length_c       2.47568
_cell_angle_alpha    65.8972
_cell_angle_beta     89.2386
_cell_angle_gamma    90.0544

_symmetry_space_group_name_H-M    "P 1"
_symmetry_int_tables_number       1

loop_
  _symmetry_equiv_pos_as_xyz
  'x, y, z'

loop_
  _atom_site_label
  _atom_site_occupancy
  _atom_site_fract_x
  _atom_site_fract_y
  _atom_site_fract_z
  _atom_site_thermal_displace_type
  _atom_site_B_iso_or_equiv
  _atom_site_type_symbol
  N1       1.0000 0.01541  0.80060  0.85052  Biso   1.000  N
  N2       1.0000 0.05523  0.64368  0.17605  Biso   1.000  N
  N3       1.0000 0.09362  0.80690  0.84359  Biso   1.000  N
  N4       1.0000 0.13317  0.65001  0.16941  Biso   1.000  N
  N5       1.0000 0.16342  0.21651  0.03173  Biso   1.000  N
  N6       1.0000 0.20308  0.06428  0.34996  Biso   1.000  N
  N7       1.0000 0.24169  0.24752  0.01041  Biso   1.000  N
  N8       1.0000 0.27969  0.10285  0.31777  Biso   1.000  N
  N9       1.0000 0.31815  0.28642  0.97760  Biso   1.000  N
  N10      1.0000 0.35793  0.12589  0.30218  Biso   1.000  N
  N11      1.0000 0.38761  0.69591  0.14776  Biso   1.000  N
  N12      1.0000 0.42796  0.51966  0.50277  Biso   1.000  N
  N13      1.0000 0.45733  0.09003  0.34717  Biso   1.000  N
  N14      1.0000 0.49754  0.92256  0.67805  Biso   1.000  N
  N15      1.0000 0.53560  0.08907  0.34375  Biso   1.000  N
  N16      1.0000 0.57398  0.92681  0.65938  Biso   1.000  N
  N17      1.0000 0.61377  0.09708  0.31667  Biso   1.000  N
  N18      1.0000 0.64404  0.53461  0.45243  Biso   1.000  N
  N19      1.0000 0.68345  0.70394  0.10883  Biso   1.000  N
  N20      1.0000 0.72206  0.54202  0.42546  Biso   1.000  N
  N21      1.0000 0.76152  0.70695  0.08332  Biso   1.000  N
  N22      1.0000 0.79187  0.14756  0.21051  Biso   1.000  N
  N23      1.0000 0.83121  0.31284  0.87106  Biso   1.000  N
  N24      1.0000 0.86995  0.14342  0.19148  Biso   1.000  N
  N25      1.0000 0.90798  0.30212  0.86657  Biso   1.000  N
  N26      1.0000 0.94638  0.13441  0.18873  Biso   1.000  N
  N27      1.0000 0.98638  0.29886  0.85181  Biso   1.000  N
