data_image0
_cell_length_a       29.599
_cell_length_b       2.1476
_cell_length_c       2.4695
_cell_angle_alpha    65.7145
_cell_angle_beta     88.1645
_cell_angle_gamma    89.8864

_symmetry_space_group_name_H-M    "P 1"
_symmetry_int_tables_number       1

loop_
  _symmetry_equiv_pos_as_xyz
  'x, y, z'

loop_
  _atom_site_label
  _atom_site_occupancy
  _atom_site_fract_x
  _atom_site_fract_y
  _atom_site_fract_z
  _atom_site_thermal_displace_type
  _atom_site_B_iso_or_equiv
  _atom_site_type_symbol
  N1       1.0000 0.01328  0.69205  0.09192  Biso   1.000  N
  N2       1.0000 0.04882  0.54000  0.40448  Biso   1.000  N
  N3       1.0000 0.08320  0.72289  0.05932  Biso   1.000  N
  N4       1.0000 0.11744  0.57737  0.36108  Biso   1.000  N
  N5       1.0000 0.15183  0.75940  0.01722  Biso   1.000  N
  N6       1.0000 0.18738  0.60564  0.33204  Biso   1.000  N
  N7       1.0000 0.21438  0.17180  0.18882  Biso   1.000  N
  N8       1.0000 0.24971  0.01235  0.50960  Biso   1.000  N
  N9       1.0000 0.28434  0.18845  0.17148  Biso   1.000  N
  N10      1.0000 0.31820  0.02750  0.48337  Biso   1.000  N
  N11      1.0000 0.35305  0.19991  0.14913  Biso   1.000  N
  N12      1.0000 0.38803  0.03557  0.47570  Biso   1.000  N
  N13      1.0000 0.41503  0.60006  0.33707  Biso   1.000  N
  N14      1.0000 0.45060  0.44583  0.65363  Biso   1.000  N
  N15      1.0000 0.48661  0.60821  0.30896  Biso   1.000  N
  N16      1.0000 0.51324  0.05107  0.42656  Biso   1.000  N
  N17      1.0000 0.54878  0.22028  0.07081  Biso   1.000  N
  N18      1.0000 0.58320  0.06147  0.37922  Biso   1.000  N
  N19      1.0000 0.61871  0.23266  0.02561  Biso   1.000  N
  N20      1.0000 0.64567  0.67227  0.15234  Biso   1.000  N
  N21      1.0000 0.68140  0.84240  0.80108  Biso   1.000  N
  N22      1.0000 0.71560  0.67529  0.11251  Biso   1.000  N
  N23      1.0000 0.75010  0.83764  0.77748  Biso   1.000  N
  N24      1.0000 0.78545  0.66924  0.10376  Biso   1.000  N
  N25      1.0000 0.81262  0.23489  0.95881  Biso   1.000  N
  N26      1.0000 0.84760  0.07065  0.28296  Biso   1.000  N
  N27      1.0000 0.88241  0.24790  0.94894  Biso   1.000  N
  N28      1.0000 0.91629  0.09564  0.25966  Biso   1.000  N
  N29      1.0000 0.95084  0.27755  0.91971  Biso   1.000  N
  N30      1.0000 0.98620  0.12399  0.23671  Biso   1.000  N
