data_image0
_cell_length_a       30.5425
_cell_length_b       2.15204
_cell_length_c       2.46675
_cell_angle_alpha    65.9695
_cell_angle_beta     91.3541
_cell_angle_gamma    90.4376

_symmetry_space_group_name_H-M    "P 1"
_symmetry_int_tables_number       1

loop_
  _symmetry_equiv_pos_as_xyz
  'x, y, z'

loop_
  _atom_site_label
  _atom_site_occupancy
  _atom_site_fract_x
  _atom_site_fract_y
  _atom_site_fract_z
  _atom_site_thermal_displace_type
  _atom_site_B_iso_or_equiv
  _atom_site_type_symbol
  N1       1.0000 0.01494  0.77424  0.93882  Biso   1.000  N
  N2       1.0000 0.04974  0.60462  0.28247  Biso   1.000  N
  N3       1.0000 0.08270  0.76216  0.96262  Biso   1.000  N
  N4       1.0000 0.11727  0.59336  0.30710  Biso   1.000  N
  N5       1.0000 0.14293  0.15431  0.18047  Biso   1.000  N
  N6       1.0000 0.17791  0.99617  0.51287  Biso   1.000  N
  N7       1.0000 0.21199  0.16127  0.18334  Biso   1.000  N
  N8       1.0000 0.23807  0.60343  0.31678  Biso   1.000  N
  N9       1.0000 0.27185  0.77678  0.97542  Biso   1.000  N
  N10      1.0000 0.30545  0.60831  0.29666  Biso   1.000  N
  N11      1.0000 0.33821  0.76868  0.97667  Biso   1.000  N
  N12      1.0000 0.37298  0.59619  0.32137  Biso   1.000  N
  N13      1.0000 0.39870  0.15795  0.18996  Biso   1.000  N
  N14      1.0000 0.43325  0.98318  0.54097  Biso   1.000  N
  N15      1.0000 0.46636  0.14359  0.22786  Biso   1.000  N
  N16      1.0000 0.49960  0.97419  0.55942  Biso   1.000  N
  N17      1.0000 0.53404  0.14163  0.23154  Biso   1.000  N
  N18      1.0000 0.56018  0.57917  0.37427  Biso   1.000  N
  N19      1.0000 0.59424  0.74329  0.04757  Biso   1.000  N
  N20      1.0000 0.62786  0.56655  0.37892  Biso   1.000  N
  N21      1.0000 0.66071  0.72042  0.06581  Biso   1.000  N
  N22      1.0000 0.69426  0.54127  0.40119  Biso   1.000  N
  N23      1.0000 0.72835  0.70016  0.07904  Biso   1.000  N
  N24      1.0000 0.75474  0.13504  0.22175  Biso   1.000  N
  N25      1.0000 0.78914  0.29343  0.90361  Biso   1.000  N
  N26      1.0000 0.82254  0.12236  0.23696  Biso   1.000  N
  N27      1.0000 0.85553  0.27947  0.92579  Biso   1.000  N
  N28      1.0000 0.88914  0.10299  0.26247  Biso   1.000  N
  N29      1.0000 0.92202  0.26368  0.94823  Biso   1.000  N
  N30      1.0000 0.95554  0.09833  0.27629  Biso   1.000  N
  N31      1.0000 0.98976  0.26628  0.94875  Biso   1.000  N
