data_image0
_cell_length_a       30.4935
_cell_length_b       2.15336
_cell_length_c       2.48199
_cell_angle_alpha    65.5782
_cell_angle_beta     90.9447
_cell_angle_gamma    90.175

_symmetry_space_group_name_H-M    "P 1"
_symmetry_int_tables_number       1

loop_
  _symmetry_equiv_pos_as_xyz
  'x, y, z'

loop_
  _atom_site_label
  _atom_site_occupancy
  _atom_site_fract_x
  _atom_site_fract_y
  _atom_site_fract_z
  _atom_site_thermal_displace_type
  _atom_site_B_iso_or_equiv
  _atom_site_type_symbol
  N1       1.0000 0.01185  0.72456  0.05221  Biso   1.000  N
  N2       1.0000 0.04619  0.54996  0.39947  Biso   1.000  N
  N3       1.0000 0.07975  0.70664  0.09076  Biso   1.000  N
  N4       1.0000 0.11255  0.52709  0.43285  Biso   1.000  N
  N5       1.0000 0.14644  0.68049  0.13076  Biso   1.000  N
  N6       1.0000 0.17941  0.50142  0.47288  Biso   1.000  N
  N7       1.0000 0.21296  0.65863  0.16408  Biso   1.000  N
  N8       1.0000 0.24591  0.48388  0.49995  Biso   1.000  N
  N9       1.0000 0.28089  0.64944  0.17458  Biso   1.000  N
  N10      1.0000 0.30647  0.07862  0.33233  Biso   1.000  N
  N11      1.0000 0.34155  0.26051  0.97323  Biso   1.000  N
  N12      1.0000 0.36708  0.69117  0.12772  Biso   1.000  N
  N13      1.0000 0.40184  0.86194  0.78978  Biso   1.000  N
  N14      1.0000 0.43518  0.69379  0.11667  Biso   1.000  N
  N15      1.0000 0.46840  0.86059  0.79317  Biso   1.000  N
  N16      1.0000 0.50176  0.68950  0.12620  Biso   1.000  N
  N17      1.0000 0.53497  0.85327  0.80978  Biso   1.000  N
  N18      1.0000 0.56982  0.67833  0.15953  Biso   1.000  N
  N19      1.0000 0.59523  0.24607  0.01315  Biso   1.000  N
  N20      1.0000 0.63051  0.06046  0.38606  Biso   1.000  N
  N21      1.0000 0.65580  0.62932  0.23710  Biso   1.000  N
  N22      1.0000 0.69105  0.45792  0.57699  Biso   1.000  N
  N23      1.0000 0.72374  0.62727  0.24895  Biso   1.000  N
  N24      1.0000 0.75732  0.46413  0.56834  Biso   1.000  N
  N25      1.0000 0.79146  0.63859  0.22775  Biso   1.000  N
  N26      1.0000 0.81780  0.07674  0.36386  Biso   1.000  N
  N27      1.0000 0.85149  0.24769  0.02614  Biso   1.000  N
  N28      1.0000 0.88576  0.07841  0.34935  Biso   1.000  N
  N29      1.0000 0.91819  0.23895  0.02919  Biso   1.000  N
  N30      1.0000 0.95206  0.06710  0.36253  Biso   1.000  N
  N31      1.0000 0.98655  0.23006  0.03964  Biso   1.000  N
