data_image0
_cell_length_a       29.6102
_cell_length_b       2.15315
_cell_length_c       2.45987
_cell_angle_alpha    65.762
_cell_angle_beta     90.0626
_cell_angle_gamma    90.0838

_symmetry_space_group_name_H-M    "P 1"
_symmetry_int_tables_number       1

loop_
  _symmetry_equiv_pos_as_xyz
  'x, y, z'

loop_
  _atom_site_label
  _atom_site_occupancy
  _atom_site_fract_x
  _atom_site_fract_y
  _atom_site_fract_z
  _atom_site_thermal_displace_type
  _atom_site_B_iso_or_equiv
  _atom_site_type_symbol
  N1       1.0000 0.01460  0.61032  0.32668  Biso   1.000  N
  N2       1.0000 0.05010  0.44027  0.66521  Biso   1.000  N
  N3       1.0000 0.08438  0.60488  0.34135  Biso   1.000  N
  N4       1.0000 0.11868  0.43665  0.66507  Biso   1.000  N
  N5       1.0000 0.15412  0.60462  0.32681  Biso   1.000  N
  N6       1.0000 0.18126  0.04058  0.46175  Biso   1.000  N
  N7       1.0000 0.21647  0.20329  0.12894  Biso   1.000  N
  N8       1.0000 0.25145  0.03943  0.44980  Biso   1.000  N
  N9       1.0000 0.28625  0.19992  0.11516  Biso   1.000  N
  N10      1.0000 0.31410  0.62904  0.25067  Biso   1.000  N
  N11      1.0000 0.34911  0.78906  0.91837  Biso   1.000  N
  N12      1.0000 0.38394  0.62781  0.23998  Biso   1.000  N
  N13      1.0000 0.41933  0.78507  0.90811  Biso   1.000  N
  N14      1.0000 0.44620  0.21773  0.03856  Biso   1.000  N
  N15      1.0000 0.48202  0.36673  0.71284  Biso   1.000  N
  N16      1.0000 0.51756  0.20591  0.04506  Biso   1.000  N
  N17      1.0000 0.54451  0.76891  0.91377  Biso   1.000  N
  N18      1.0000 0.57970  0.59724  0.25343  Biso   1.000  N
  N19      1.0000 0.61434  0.75795  0.93415  Biso   1.000  N
  N20      1.0000 0.64829  0.59003  0.25792  Biso   1.000  N
  N21      1.0000 0.68293  0.76473  0.92764  Biso   1.000  N
  N22      1.0000 0.71704  0.60629  0.24651  Biso   1.000  N
  N23      1.0000 0.75142  0.77953  0.91868  Biso   1.000  N
  N24      1.0000 0.78700  0.62069  0.24690  Biso   1.000  N
  N25      1.0000 0.81412  0.18611  0.11157  Biso   1.000  N
  N26      1.0000 0.84938  0.02397  0.44599  Biso   1.000  N
  N27      1.0000 0.88387  0.19910  0.12078  Biso   1.000  N
  N28      1.0000 0.91784  0.04128  0.44536  Biso   1.000  N
  N29      1.0000 0.95242  0.21462  0.12238  Biso   1.000  N
  N30      1.0000 0.98757  0.04825  0.46058  Biso   1.000  N
