data_image0
_cell_length_a       37.7131
_cell_length_b       2.16098
_cell_length_c       2.46539
_cell_angle_alpha    65.5279
_cell_angle_beta     87.3272
_cell_angle_gamma    90.205

_symmetry_space_group_name_H-M    "P 1"
_symmetry_int_tables_number       1

loop_
  _symmetry_equiv_pos_as_xyz
  'x, y, z'

loop_
  _atom_site_label
  _atom_site_occupancy
  _atom_site_fract_x
  _atom_site_fract_y
  _atom_site_fract_z
  _atom_site_thermal_displace_type
  _atom_site_B_iso_or_equiv
  _atom_site_type_symbol
  N1       1.0000 0.00867  0.65646  0.18315  Biso   1.000  N
  N2       1.0000 0.03664  0.50466  0.49104  Biso   1.000  N
  N3       1.0000 0.06354  0.67730  0.14258  Biso   1.000  N
  N4       1.0000 0.09062  0.51775  0.43684  Biso   1.000  N
  N5       1.0000 0.11734  0.69471  0.07903  Biso   1.000  N
  N6       1.0000 0.14470  0.54158  0.36541  Biso   1.000  N
  N7       1.0000 0.17140  0.72355  0.00655  Biso   1.000  N
  N8       1.0000 0.19840  0.57185  0.30062  Biso   1.000  N
  N9       1.0000 0.22564  0.74761  0.95618  Biso   1.000  N
  N10      1.0000 0.25324  0.60309  0.26653  Biso   1.000  N
  N11      1.0000 0.27481  0.18390  0.11610  Biso   1.000  N
  N12      1.0000 0.30234  0.04166  0.42865  Biso   1.000  N
  N13      1.0000 0.32993  0.22428  0.08883  Biso   1.000  N
  N14      1.0000 0.35734  0.07568  0.40524  Biso   1.000  N
  N15      1.0000 0.37885  0.65022  0.25902  Biso   1.000  N
  N16      1.0000 0.40635  0.49389  0.57907  Biso   1.000  N
  N17      1.0000 0.43383  0.66420  0.24271  Biso   1.000  N
  N18      1.0000 0.46048  0.50071  0.55377  Biso   1.000  N
  N19      1.0000 0.48762  0.67223  0.20709  Biso   1.000  N
  N20      1.0000 0.51452  0.51316  0.50910  Biso   1.000  N
  N21      1.0000 0.54258  0.69017  0.14874  Biso   1.000  N
  N22      1.0000 0.56360  0.13723  0.26593  Biso   1.000  N
  N23      1.0000 0.59159  0.31529  0.90571  Biso   1.000  N
  N24      1.0000 0.61852  0.15304  0.20686  Biso   1.000  N
  N25      1.0000 0.64546  0.32217  0.85928  Biso   1.000  N
  N26      1.0000 0.67242  0.15828  0.16323  Biso   1.000  N
  N27      1.0000 0.69966  0.33126  0.82062  Biso   1.000  N
  N28      1.0000 0.72627  0.17196  0.12962  Biso   1.000  N
  N29      1.0000 0.75344  0.35058  0.78643  Biso   1.000  N
  N30      1.0000 0.78124  0.19053  0.10546  Biso   1.000  N
  N31      1.0000 0.80217  0.76524  0.94259  Biso   1.000  N
  N32      1.0000 0.83026  0.59772  0.28157  Biso   1.000  N
  N33      1.0000 0.85132  0.17218  0.11841  Biso   1.000  N
  N34      1.0000 0.87903  0.01686  0.42934  Biso   1.000  N
  N35      1.0000 0.90604  0.20087  0.07987  Biso   1.000  N
  N36      1.0000 0.93281  0.05050  0.37769  Biso   1.000  N
  N37      1.0000 0.95973  0.23307  0.02810  Biso   1.000  N
  N38      1.0000 0.98762  0.08457  0.33303  Biso   1.000  N
