data_image0
_cell_length_a       31.9421
_cell_length_b       2.16392
_cell_length_c       2.46949
_cell_angle_alpha    65.4362
_cell_angle_beta     91.8881
_cell_angle_gamma    86.8951

_symmetry_space_group_name_H-M    "P 1"
_symmetry_int_tables_number       1

loop_
  _symmetry_equiv_pos_as_xyz
  'x, y, z'

loop_
  _atom_site_label
  _atom_site_occupancy
  _atom_site_fract_x
  _atom_site_fract_y
  _atom_site_fract_z
  _atom_site_thermal_displace_type
  _atom_site_B_iso_or_equiv
  _atom_site_type_symbol
  N1       1.0000 0.01768  0.88567  0.12944  Biso   1.000  N
  N2       1.0000 0.04985  0.66197  0.47680  Biso   1.000  N
  N3       1.0000 0.08266  0.78563  0.16446  Biso   1.000  N
  N4       1.0000 0.10774  0.19133  0.32157  Biso   1.000  N
  N5       1.0000 0.14061  0.32233  0.01229  Biso   1.000  N
  N6       1.0000 0.17273  0.12442  0.36132  Biso   1.000  N
  N7       1.0000 0.20436  0.26469  0.06696  Biso   1.000  N
  N8       1.0000 0.23654  0.06775  0.42860  Biso   1.000  N
  N9       1.0000 0.26812  0.21914  0.13634  Biso   1.000  N
  N10      1.0000 0.30010  0.02971  0.49039  Biso   1.000  N
  N11      1.0000 0.33317  0.17076  0.18005  Biso   1.000  N
  N12      1.0000 0.35782  0.57832  0.34786  Biso   1.000  N
  N13      1.0000 0.39115  0.72622  0.00684  Biso   1.000  N
  N14      1.0000 0.41568  0.13271  0.17556  Biso   1.000  N
  N15      1.0000 0.44894  0.26665  0.86518  Biso   1.000  N
  N16      1.0000 0.48070  0.06194  0.21749  Biso   1.000  N
  N17      1.0000 0.51242  0.18860  0.91916  Biso   1.000  N
  N18      1.0000 0.54446  0.97268  0.27479  Biso   1.000  N
  N19      1.0000 0.57634  0.08169  0.98384  Biso   1.000  N
  N20      1.0000 0.60828  0.84966  0.34007  Biso   1.000  N
  N21      1.0000 0.63996  0.95348  0.04451  Biso   1.000  N
  N22      1.0000 0.67215  0.72086  0.39368  Biso   1.000  N
  N23      1.0000 0.70368  0.83053  0.08939  Biso   1.000  N
  N24      1.0000 0.73569  0.60806  0.43435  Biso   1.000  N
  N25      1.0000 0.76850  0.73410  0.12076  Biso   1.000  N
  N26      1.0000 0.79355  0.14369  0.27468  Biso   1.000  N
  N27      1.0000 0.82620  0.27205  0.96085  Biso   1.000  N
  N28      1.0000 0.85858  0.05410  0.30749  Biso   1.000  N
  N29      1.0000 0.89000  0.16244  0.00797  Biso   1.000  N
  N30      1.0000 0.92223  0.92729  0.36498  Biso   1.000  N
  N31      1.0000 0.95396  0.02479  0.07333  Biso   1.000  N
  N32      1.0000 0.98612  0.78674  0.42901  Biso   1.000  N
