data_image0
_cell_length_a       35.0389
_cell_length_b       2.20135
_cell_length_c       2.43462
_cell_angle_alpha    63.0946
_cell_angle_beta     88.0158
_cell_angle_gamma    85.6325

_symmetry_space_group_name_H-M    "P 1"
_symmetry_int_tables_number       1

loop_
  _symmetry_equiv_pos_as_xyz
  'x, y, z'

loop_
  _atom_site_label
  _atom_site_occupancy
  _atom_site_fract_x
  _atom_site_fract_y
  _atom_site_fract_z
  _atom_site_thermal_displace_type
  _atom_site_B_iso_or_equiv
  _atom_site_type_symbol
  N1       1.0000 0.01465  0.02409  0.03417  Biso   1.000  N
  N2       1.0000 0.04420  0.84751  0.35362  Biso   1.000  N
  N3       1.0000 0.07354  0.99615  0.02839  Biso   1.000  N
  N4       1.0000 0.10305  0.82676  0.34837  Biso   1.000  N
  N5       1.0000 0.13239  0.98295  0.02382  Biso   1.000  N
  N6       1.0000 0.16184  0.81958  0.34458  Biso   1.000  N
  N7       1.0000 0.19121  0.97834  0.02115  Biso   1.000  N
  N8       1.0000 0.22062  0.81247  0.34323  Biso   1.000  N
  N9       1.0000 0.25006  0.96367  0.02092  Biso   1.000  N
  N10      1.0000 0.27947  0.78426  0.34427  Biso   1.000  N
  N11      1.0000 0.30897  0.91715  0.02280  Biso   1.000  N
  N12      1.0000 0.33836  0.71570  0.34725  Biso   1.000  N
  N13      1.0000 0.36789  0.82424  0.02688  Biso   1.000  N
  N14      1.0000 0.39719  0.59996  0.35205  Biso   1.000  N
  N15      1.0000 0.42669  0.68724  0.03281  Biso   1.000  N
  N16      1.0000 0.45591  0.44775  0.35846  Biso   1.000  N
  N17      1.0000 0.48538  0.52469  0.03993  Biso   1.000  N
  N18      1.0000 0.51457  0.28213  0.36578  Biso   1.000  N
  N19      1.0000 0.54405  0.36293  0.04697  Biso   1.000  N
  N20      1.0000 0.57332  0.13025  0.37236  Biso   1.000  N
  N21      1.0000 0.60283  0.22810  0.05234  Biso   1.000  N
  N22      1.0000 0.63219  0.01581  0.37703  Biso   1.000  N
  N23      1.0000 0.66171  0.13825  0.05581  Biso   1.000  N
  N24      1.0000 0.69112  0.95046  0.37944  Biso   1.000  N
  N25      1.0000 0.72057  0.09618  0.05714  Biso   1.000  N
  N26      1.0000 0.74999  0.92809  0.37932  Biso   1.000  N
  N27      1.0000 0.77935  0.08770  0.05603  Biso   1.000  N
  N28      1.0000 0.80878  0.92815  0.37689  Biso   1.000  N
  N29      1.0000 0.83809  0.08999  0.05241  Biso   1.000  N
  N30      1.0000 0.86758  0.92758  0.37225  Biso   1.000  N
  N31      1.0000 0.89689  0.08261  0.04689  Biso   1.000  N
  N32      1.0000 0.92643  0.91123  0.36627  Biso   1.000  N
  N33      1.0000 0.95575  0.05790  0.04057  Biso   1.000  N
  N34      1.0000 0.98532  0.88012  0.35980  Biso   1.000  N
