data_image0
_cell_length_a       39.1927
_cell_length_b       2.18903
_cell_length_c       2.43918
_cell_angle_alpha    63.3208
_cell_angle_beta     86.2417
_cell_angle_gamma    83.5508

_symmetry_space_group_name_H-M    "P 1"
_symmetry_int_tables_number       1

loop_
  _symmetry_equiv_pos_as_xyz
  'x, y, z'

loop_
  _atom_site_label
  _atom_site_occupancy
  _atom_site_fract_x
  _atom_site_fract_y
  _atom_site_fract_z
  _atom_site_thermal_displace_type
  _atom_site_B_iso_or_equiv
  _atom_site_type_symbol
  N1       1.0000 0.01522  0.96647  0.94694  Biso   1.000  N
  N2       1.0000 0.04220  0.74285  0.27846  Biso   1.000  N
  N3       1.0000 0.06286  0.26741  0.14445  Biso   1.000  N
  N4       1.0000 0.08992  0.05125  0.47371  Biso   1.000  N
  N5       1.0000 0.11642  0.17080  0.14039  Biso   1.000  N
  N6       1.0000 0.14283  0.97062  0.44751  Biso   1.000  N
  N7       1.0000 0.16919  0.08351  0.11095  Biso   1.000  N
  N8       1.0000 0.19579  0.86305  0.42038  Biso   1.000  N
  N9       1.0000 0.22214  0.95774  0.09015  Biso   1.000  N
  N10      1.0000 0.24854  0.72160  0.40706  Biso   1.000  N
  N11      1.0000 0.27501  0.80629  0.08255  Biso   1.000  N
  N12      1.0000 0.30140  0.57062  0.40013  Biso   1.000  N
  N13      1.0000 0.32795  0.66075  0.07433  Biso   1.000  N
  N14      1.0000 0.35423  0.43533  0.39075  Biso   1.000  N
  N15      1.0000 0.38082  0.53628  0.06291  Biso   1.000  N
  N16      1.0000 0.40717  0.31870  0.37941  Biso   1.000  N
  N17      1.0000 0.43374  0.42282  0.05524  Biso   1.000  N
  N18      1.0000 0.46007  0.20563  0.37461  Biso   1.000  N
  N19      1.0000 0.48662  0.30992  0.04920  Biso   1.000  N
  N20      1.0000 0.51294  0.09183  0.36639  Biso   1.000  N
  N21      1.0000 0.53951  0.19502  0.03888  Biso   1.000  N
  N22      1.0000 0.56582  0.97601  0.35410  Biso   1.000  N
  N23      1.0000 0.59240  0.07982  0.02669  Biso   1.000  N
  N24      1.0000 0.61871  0.86135  0.34447  Biso   1.000  N
  N25      1.0000 0.64529  0.96367  0.02007  Biso   1.000  N
  N26      1.0000 0.67161  0.74310  0.33983  Biso   1.000  N
  N27      1.0000 0.69818  0.84076  0.01579  Biso   1.000  N
  N28      1.0000 0.72452  0.61669  0.33224  Biso   1.000  N
  N29      1.0000 0.75108  0.71219  0.00381  Biso   1.000  N
  N30      1.0000 0.77737  0.48314  0.31927  Biso   1.000  N
  N31      1.0000 0.80389  0.57386  0.99224  Biso   1.000  N
  N32      1.0000 0.83027  0.34153  0.30990  Biso   1.000  N
  N33      1.0000 0.85677  0.42847  0.98631  Biso   1.000  N
  N34      1.0000 0.88307  0.19162  0.30627  Biso   1.000  N
  N35      1.0000 0.90953  0.27436  0.98003  Biso   1.000  N
  N36      1.0000 0.93590  0.03130  0.29443  Biso   1.000  N
  N37      1.0000 0.96240  0.11200  0.96382  Biso   1.000  N
  N38      1.0000 0.98859  0.87164  0.27634  Biso   1.000  N
