data_image0
_cell_length_a       25.7511
_cell_length_b       2.16705
_cell_length_c       2.4676
_cell_angle_alpha    65.5049
_cell_angle_beta     83.2179
_cell_angle_gamma    87.3697

_symmetry_space_group_name_H-M    "P 1"
_symmetry_int_tables_number       1

loop_
  _symmetry_equiv_pos_as_xyz
  'x, y, z'

loop_
  _atom_site_label
  _atom_site_occupancy
  _atom_site_fract_x
  _atom_site_fract_y
  _atom_site_fract_z
  _atom_site_thermal_displace_type
  _atom_site_B_iso_or_equiv
  _atom_site_type_symbol
  N1       1.0000 0.01361  0.68579  0.16203  Biso   1.000  N
  N2       1.0000 0.05389  0.51744  0.45791  Biso   1.000  N
  N3       1.0000 0.09438  0.67671  0.09686  Biso   1.000  N
  N4       1.0000 0.13314  0.50314  0.38391  Biso   1.000  N
  N5       1.0000 0.17388  0.66374  0.02163  Biso   1.000  N
  N6       1.0000 0.21257  0.48907  0.31223  Biso   1.000  N
  N7       1.0000 0.25302  0.65060  0.95347  Biso   1.000  N
  N8       1.0000 0.29331  0.47790  0.25175  Biso   1.000  N
  N9       1.0000 0.32475  0.03515  0.09001  Biso   1.000  N
  N10      1.0000 0.36503  0.86827  0.38564  Biso   1.000  N
  N11      1.0000 0.40534  0.03329  0.02237  Biso   1.000  N
  N12      1.0000 0.44435  0.87064  0.30411  Biso   1.000  N
  N13      1.0000 0.48468  0.03659  0.93673  Biso   1.000  N
  N14      1.0000 0.52514  0.87969  0.22168  Biso   1.000  N
  N15      1.0000 0.55686  0.44916  0.05337  Biso   1.000  N
  N16      1.0000 0.59750  0.29603  0.33979  Biso   1.000  N
  N17      1.0000 0.63745  0.46502  0.96455  Biso   1.000  N
  N18      1.0000 0.67860  0.30591  0.25021  Biso   1.000  N
  N19      1.0000 0.70937  0.87500  0.06669  Biso   1.000  N
  N20      1.0000 0.75092  0.69741  0.37853  Biso   1.000  N
  N21      1.0000 0.78172  0.26411  0.19522  Biso   1.000  N
  N22      1.0000 0.82257  0.09765  0.48591  Biso   1.000  N
  N23      1.0000 0.86249  0.27479  0.11541  Biso   1.000  N
  N24      1.0000 0.90157  0.11768  0.39693  Biso   1.000  N
  N25      1.0000 0.94177  0.29237  0.03003  Biso   1.000  N
  N26      1.0000 0.98210  0.12683  0.32306  Biso   1.000  N
