data_image0
_cell_length_a       38.7998
_cell_length_b       2.1949
_cell_length_c       2.43835
_cell_angle_alpha    63.3242
_cell_angle_beta     91.6656
_cell_angle_gamma    91.9138

_symmetry_space_group_name_H-M    "P 1"
_symmetry_int_tables_number       1

loop_
  _symmetry_equiv_pos_as_xyz
  'x, y, z'

loop_
  _atom_site_label
  _atom_site_occupancy
  _atom_site_fract_x
  _atom_site_fract_y
  _atom_site_fract_z
  _atom_site_thermal_displace_type
  _atom_site_B_iso_or_equiv
  _atom_site_type_symbol
  N1       1.0000 0.01501  0.79646  0.05411  Biso   1.000  N
  N2       1.0000 0.04109  0.57419  0.38552  Biso   1.000  N
  N3       1.0000 0.06755  0.65542  0.07839  Biso   1.000  N
  N4       1.0000 0.09336  0.42506  0.41625  Biso   1.000  N
  N5       1.0000 0.11993  0.49239  0.11687  Biso   1.000  N
  N6       1.0000 0.14575  0.25978  0.46043  Biso   1.000  N
  N7       1.0000 0.17205  0.32755  0.16161  Biso   1.000  N
  N8       1.0000 0.19845  0.12478  0.49720  Biso   1.000  N
  N9       1.0000 0.22561  0.28498  0.16904  Biso   1.000  N
  N10      1.0000 0.24642  0.72367  0.30500  Biso   1.000  N
  N11      1.0000 0.27347  0.89455  0.97409  Biso   1.000  N
  N12      1.0000 0.30016  0.72920  0.30584  Biso   1.000  N
  N13      1.0000 0.32657  0.88167  0.99562  Biso   1.000  N
  N14      1.0000 0.35315  0.72139  0.32887  Biso   1.000  N
  N15      1.0000 0.37974  0.89815  0.01566  Biso   1.000  N
  N16      1.0000 0.40633  0.76351  0.34266  Biso   1.000  N
  N17      1.0000 0.43272  0.96395  0.02238  Biso   1.000  N
  N18      1.0000 0.45940  0.84909  0.34444  Biso   1.000  N
  N19      1.0000 0.48573  0.05838  0.02443  Biso   1.000  N
  N20      1.0000 0.51246  0.95076  0.34765  Biso   1.000  N
  N21      1.0000 0.53864  0.16521  0.02791  Biso   1.000  N
  N22      1.0000 0.56540  0.06200  0.35169  Biso   1.000  N
  N23      1.0000 0.59156  0.28170  0.03008  Biso   1.000  N
  N24      1.0000 0.61833  0.19274  0.34783  Biso   1.000  N
  N25      1.0000 0.64436  0.41996  0.02155  Biso   1.000  N
  N26      1.0000 0.67117  0.33472  0.33883  Biso   1.000  N
  N27      1.0000 0.69718  0.56222  0.01454  Biso   1.000  N
  N28      1.0000 0.72398  0.47503  0.33419  Biso   1.000  N
  N29      1.0000 0.75006  0.69949  0.01277  Biso   1.000  N
  N30      1.0000 0.77688  0.60404  0.33338  Biso   1.000  N
  N31      1.0000 0.80301  0.81984  0.01098  Biso   1.000  N
  N32      1.0000 0.82980  0.71093  0.33161  Biso   1.000  N
  N33      1.0000 0.85607  0.91156  0.00879  Biso   1.000  N
  N34      1.0000 0.88280  0.77520  0.33210  Biso   1.000  N
  N35      1.0000 0.90923  0.94454  0.01505  Biso   1.000  N
  N36      1.0000 0.93581  0.77041  0.34548  Biso   1.000  N
  N37      1.0000 0.96225  0.90044  0.03259  Biso   1.000  N
  N38      1.0000 0.98853  0.69504  0.36459  Biso   1.000  N
