data_image0
_cell_length_a       32.5176
_cell_length_b       2.15711
_cell_length_c       2.47347
_cell_angle_alpha    65.7961
_cell_angle_beta     88.9091
_cell_angle_gamma    90.0674

_symmetry_space_group_name_H-M    "P 1"
_symmetry_int_tables_number       1

loop_
  _symmetry_equiv_pos_as_xyz
  'x, y, z'

loop_
  _atom_site_label
  _atom_site_occupancy
  _atom_site_fract_x
  _atom_site_fract_y
  _atom_site_fract_z
  _atom_site_thermal_displace_type
  _atom_site_B_iso_or_equiv
  _atom_site_type_symbol
  N1       1.0000 0.01326  0.78706  0.87192  Biso   1.000  N
  N2       1.0000 0.04577  0.63433  0.18872  Biso   1.000  N
  N3       1.0000 0.07689  0.81242  0.85389  Biso   1.000  N
  N4       1.0000 0.10789  0.66306  0.16713  Biso   1.000  N
  N5       1.0000 0.13915  0.84496  0.83501  Biso   1.000  N
  N6       1.0000 0.17133  0.68342  0.16209  Biso   1.000  N
  N7       1.0000 0.19556  0.25360  0.00777  Biso   1.000  N
  N8       1.0000 0.22832  0.08176  0.35833  Biso   1.000  N
  N9       1.0000 0.25243  0.65348  0.20396  Biso   1.000  N
  N10      1.0000 0.28491  0.49190  0.52796  Biso   1.000  N
  N11      1.0000 0.31621  0.66666  0.18942  Biso   1.000  N
  N12      1.0000 0.34740  0.50905  0.49531  Biso   1.000  N
  N13      1.0000 0.37876  0.69093  0.14975  Biso   1.000  N
  N14      1.0000 0.40971  0.52860  0.45988  Biso   1.000  N
  N15      1.0000 0.44156  0.69622  0.13131  Biso   1.000  N
  N16      1.0000 0.47325  0.52931  0.46198  Biso   1.000  N
  N17      1.0000 0.49810  0.09552  0.32032  Biso   1.000  N
  N18      1.0000 0.53004  0.92610  0.65632  Biso   1.000  N
  N19      1.0000 0.56162  0.08893  0.33194  Biso   1.000  N
  N20      1.0000 0.59236  0.92227  0.65631  Biso   1.000  N
  N21      1.0000 0.62534  0.09436  0.31310  Biso   1.000  N
  N22      1.0000 0.64914  0.52968  0.45897  Biso   1.000  N
  N23      1.0000 0.68208  0.71330  0.08779  Biso   1.000  N
  N24      1.0000 0.70607  0.14991  0.23255  Biso   1.000  N
  N25      1.0000 0.73876  0.31889  0.89376  Biso   1.000  N
  N26      1.0000 0.76968  0.14754  0.21587  Biso   1.000  N
  N27      1.0000 0.80112  0.30327  0.89377  Biso   1.000  N
  N28      1.0000 0.83197  0.12876  0.22126  Biso   1.000  N
  N29      1.0000 0.86374  0.28115  0.90508  Biso   1.000  N
  N30      1.0000 0.89464  0.10950  0.23010  Biso   1.000  N
  N31      1.0000 0.92601  0.27365  0.90317  Biso   1.000  N
  N32      1.0000 0.95713  0.11668  0.21646  Biso   1.000  N
  N33      1.0000 0.98978  0.28623  0.87380  Biso   1.000  N
