data_image0
_cell_length_a       38.925
_cell_length_b       2.2063
_cell_length_c       2.43764
_cell_angle_alpha    63.1152
_cell_angle_beta     87.8665
_cell_angle_gamma    86.6975

_symmetry_space_group_name_H-M    "P 1"
_symmetry_int_tables_number       1

loop_
  _symmetry_equiv_pos_as_xyz
  'x, y, z'

loop_
  _atom_site_label
  _atom_site_occupancy
  _atom_site_fract_x
  _atom_site_fract_y
  _atom_site_fract_z
  _atom_site_thermal_displace_type
  _atom_site_B_iso_or_equiv
  _atom_site_type_symbol
  N1       1.0000 0.01287  0.11988  0.14148  Biso   1.000  N
  N2       1.0000 0.03895  0.90483  0.46660  Biso   1.000  N
  N3       1.0000 0.06566  0.02264  0.14378  Biso   1.000  N
  N4       1.0000 0.09201  0.84203  0.46289  Biso   1.000  N
  N5       1.0000 0.11849  0.00024  0.13436  Biso   1.000  N
  N6       1.0000 0.14496  0.85410  0.44801  Biso   1.000  N
  N7       1.0000 0.17120  0.04059  0.11574  Biso   1.000  N
  N8       1.0000 0.19769  0.91972  0.42503  Biso   1.000  N
  N9       1.0000 0.22375  0.12068  0.09059  Biso   1.000  N
  N10      1.0000 0.25023  0.01430  0.39746  Biso   1.000  N
  N11      1.0000 0.27621  0.22130  0.06243  Biso   1.000  N
  N12      1.0000 0.30268  0.11990  0.36897  Biso   1.000  N
  N13      1.0000 0.32866  0.32822  0.03434  Biso   1.000  N
  N14      1.0000 0.35510  0.22443  0.34189  Biso   1.000  N
  N15      1.0000 0.38114  0.42945  0.00823  Biso   1.000  N
  N16      1.0000 0.40759  0.31793  0.31726  Biso   1.000  N
  N17      1.0000 0.43372  0.51565  0.98472  Biso   1.000  N
  N18      1.0000 0.46018  0.39214  0.29571  Biso   1.000  N
  N19      1.0000 0.48644  0.57955  0.96462  Biso   1.000  N
  N20      1.0000 0.51287  0.43994  0.27822  Biso   1.000  N
  N21      1.0000 0.53930  0.61172  0.94952  Biso   1.000  N
  N22      1.0000 0.56569  0.45041  0.26681  Biso   1.000  N
  N23      1.0000 0.59232  0.59731  0.94186  Biso   1.000  N
  N24      1.0000 0.61858  0.40910  0.26373  Biso   1.000  N
  N25      1.0000 0.64540  0.52267  0.94419  Biso   1.000  N
  N26      1.0000 0.67143  0.30737  0.27120  Biso   1.000  N
  N27      1.0000 0.69835  0.38544  0.95824  Biso   1.000  N
  N28      1.0000 0.72410  0.14892  0.29024  Biso   1.000  N
  N29      1.0000 0.75105  0.19645  0.98345  Biso   1.000  N
  N30      1.0000 0.77656  0.94725  0.31920  Biso   1.000  N
  N31      1.0000 0.80348  0.97289  0.01718  Biso   1.000  N
  N32      1.0000 0.82884  0.71752  0.35533  Biso   1.000  N
  N33      1.0000 0.85574  0.73281  0.05586  Biso   1.000  N
  N34      1.0000 0.88107  0.47572  0.39478  Biso   1.000  N
  N35      1.0000 0.90797  0.49583  0.09416  Biso   1.000  N
  N36      1.0000 0.93341  0.24278  0.43100  Biso   1.000  N
  N37      1.0000 0.96030  0.28410  0.12467  Biso   1.000  N
  N38      1.0000 0.98603  0.04419  0.45626  Biso   1.000  N
