data_image0
_cell_length_a       36.722
_cell_length_b       2.17811
_cell_length_c       2.44462
_cell_angle_alpha    63.529
_cell_angle_beta     88.6668
_cell_angle_gamma    86.824

_symmetry_space_group_name_H-M    "P 1"
_symmetry_int_tables_number       1

loop_
  _symmetry_equiv_pos_as_xyz
  'x, y, z'

loop_
  _atom_site_label
  _atom_site_occupancy
  _atom_site_fract_x
  _atom_site_fract_y
  _atom_site_fract_z
  _atom_site_thermal_displace_type
  _atom_site_B_iso_or_equiv
  _atom_site_type_symbol
  N1       1.0000 0.01479  0.02149  0.05645  Biso   1.000  N
  N2       1.0000 0.04288  0.80210  0.37613  Biso   1.000  N
  N3       1.0000 0.07088  0.91307  0.05392  Biso   1.000  N
  N4       1.0000 0.09898  0.71243  0.37339  Biso   1.000  N
  N5       1.0000 0.12695  0.84432  0.05172  Biso   1.000  N
  N6       1.0000 0.15527  0.67526  0.36917  Biso   1.000  N
  N7       1.0000 0.18306  0.83681  0.04507  Biso   1.000  N
  N8       1.0000 0.21138  0.70052  0.35690  Biso   1.000  N
  N9       1.0000 0.23894  0.88409  0.02519  Biso   1.000  N
  N10      1.0000 0.26723  0.76635  0.33267  Biso   1.000  N
  N11      1.0000 0.29493  0.95881  0.00319  Biso   1.000  N
  N12      1.0000 0.32286  0.83826  0.31613  Biso   1.000  N
  N13      1.0000 0.35089  0.01057  0.99340  Biso   1.000  N
  N14      1.0000 0.37970  0.82724  0.33015  Biso   1.000  N
  N15      1.0000 0.40141  0.37406  0.20268  Biso   1.000  N
  N16      1.0000 0.43036  0.18686  0.53315  Biso   1.000  N
  N17      1.0000 0.45916  0.32995  0.20049  Biso   1.000  N
  N18      1.0000 0.48091  0.74823  0.32588  Biso   1.000  N
  N19      1.0000 0.50959  0.88831  0.98683  Biso   1.000  N
  N20      1.0000 0.53783  0.68829  0.30729  Biso   1.000  N
  N21      1.0000 0.56570  0.79924  0.98823  Biso   1.000  N
  N22      1.0000 0.59380  0.59150  0.31325  Biso   1.000  N
  N23      1.0000 0.62207  0.70109  0.00173  Biso   1.000  N
  N24      1.0000 0.64994  0.49598  0.33067  Biso   1.000  N
  N25      1.0000 0.67820  0.61466  0.01546  Biso   1.000  N
  N26      1.0000 0.70611  0.41677  0.33836  Biso   1.000  N
  N27      1.0000 0.73440  0.54144  0.02068  Biso   1.000  N
  N28      1.0000 0.76241  0.34463  0.34249  Biso   1.000  N
  N29      1.0000 0.79050  0.46545  0.02380  Biso   1.000  N
  N30      1.0000 0.81849  0.26270  0.34850  Biso   1.000  N
  N31      1.0000 0.84671  0.37208  0.03331  Biso   1.000  N
  N32      1.0000 0.87458  0.16129  0.35902  Biso   1.000  N
  N33      1.0000 0.90280  0.26279  0.04529  Biso   1.000  N
  N34      1.0000 0.93069  0.04508  0.37092  Biso   1.000  N
  N35      1.0000 0.95882  0.14570  0.05341  Biso   1.000  N
  N36      1.0000 0.98678  0.92258  0.37506  Biso   1.000  N
