data_image0
_cell_length_a       36.5681
_cell_length_b       2.18888
_cell_length_c       2.44376
_cell_angle_alpha    63.358
_cell_angle_beta     88.3671
_cell_angle_gamma    90.1862

_symmetry_space_group_name_H-M    "P 1"
_symmetry_int_tables_number       1

loop_
  _symmetry_equiv_pos_as_xyz
  'x, y, z'

loop_
  _atom_site_label
  _atom_site_occupancy
  _atom_site_fract_x
  _atom_site_fract_y
  _atom_site_fract_z
  _atom_site_thermal_displace_type
  _atom_site_B_iso_or_equiv
  _atom_site_type_symbol
  N1       1.0000 0.00984  0.67999  0.12996  Biso   1.000  N
  N2       1.0000 0.03854  0.51474  0.45662  Biso   1.000  N
  N3       1.0000 0.06703  0.66006  0.12400  Biso   1.000  N
  N4       1.0000 0.09469  0.47136  0.43669  Biso   1.000  N
  N5       1.0000 0.12320  0.59217  0.10571  Biso   1.000  N
  N6       1.0000 0.15083  0.38933  0.41891  Biso   1.000  N
  N7       1.0000 0.17934  0.48376  0.09462  Biso   1.000  N
  N8       1.0000 0.20658  0.26702  0.41740  Biso   1.000  N
  N9       1.0000 0.23516  0.33466  0.10406  Biso   1.000  N
  N10      1.0000 0.26222  0.11327  0.43364  Biso   1.000  N
  N11      1.0000 0.29088  0.17086  0.12492  Biso   1.000  N
  N12      1.0000 0.31789  0.95134  0.45349  Biso   1.000  N
  N13      1.0000 0.34654  0.03242  0.13691  Biso   1.000  N
  N14      1.0000 0.37395  0.83130  0.45803  Biso   1.000  N
  N15      1.0000 0.40249  0.95719  0.13110  Biso   1.000  N
  N16      1.0000 0.43030  0.79096  0.44429  Biso   1.000  N
  N17      1.0000 0.45867  0.96603  0.11042  Biso   1.000  N
  N18      1.0000 0.48668  0.83917  0.41772  Biso   1.000  N
  N19      1.0000 0.51482  0.05080  0.08025  Biso   1.000  N
  N20      1.0000 0.54282  0.95521  0.38498  Biso   1.000  N
  N21      1.0000 0.57064  0.18595  0.04564  Biso   1.000  N
  N22      1.0000 0.59888  0.10710  0.34397  Biso   1.000  N
  N23      1.0000 0.62649  0.34149  0.99836  Biso   1.000  N
  N24      1.0000 0.65478  0.27102  0.29058  Biso   1.000  N
  N25      1.0000 0.68233  0.50271  0.93978  Biso   1.000  N
  N26      1.0000 0.71075  0.42772  0.22997  Biso   1.000  N
  N27      1.0000 0.73844  0.65326  0.88075  Biso   1.000  N
  N28      1.0000 0.76661  0.56518  0.17684  Biso   1.000  N
  N29      1.0000 0.79467  0.76536  0.83475  Biso   1.000  N
  N30      1.0000 0.82363  0.61760  0.15609  Biso   1.000  N
  N31      1.0000 0.84558  0.19134  0.01590  Biso   1.000  N
  N32      1.0000 0.87442  0.03881  0.33250  Biso   1.000  N
  N33      1.0000 0.90274  0.21924  0.99111  Biso   1.000  N
  N34      1.0000 0.93070  0.08791  0.28619  Biso   1.000  N
  N35      1.0000 0.95908  0.26498  0.94697  Biso   1.000  N
  N36      1.0000 0.98780  0.10873  0.26688  Biso   1.000  N
