data_image0
_cell_length_a       36.1603
_cell_length_b       2.18079
_cell_length_c       2.43981
_cell_angle_alpha    63.4295
_cell_angle_beta     93.3916
_cell_angle_gamma    97.5645

_symmetry_space_group_name_H-M    "P 1"
_symmetry_int_tables_number       1

loop_
  _symmetry_equiv_pos_as_xyz
  'x, y, z'

loop_
  _atom_site_label
  _atom_site_occupancy
  _atom_site_fract_x
  _atom_site_fract_y
  _atom_site_fract_z
  _atom_site_thermal_displace_type
  _atom_site_B_iso_or_equiv
  _atom_site_type_symbol
  N1       1.0000 0.01089  0.81931  0.03577  Biso   1.000  N
  N2       1.0000 0.04070  0.72692  0.36849  Biso   1.000  N
  N3       1.0000 0.06938  0.97255  0.04229  Biso   1.000  N
  N4       1.0000 0.09796  0.91340  0.36037  Biso   1.000  N
  N5       1.0000 0.12665  0.17367  0.03588  Biso   1.000  N
  N6       1.0000 0.15540  0.11568  0.35499  Biso   1.000  N
  N7       1.0000 0.18404  0.37627  0.03257  Biso   1.000  N
  N8       1.0000 0.21273  0.31732  0.35411  Biso   1.000  N
  N9       1.0000 0.24131  0.57763  0.03233  Biso   1.000  N
  N10      1.0000 0.27010  0.51267  0.35305  Biso   1.000  N
  N11      1.0000 0.29880  0.76439  0.03036  Biso   1.000  N
  N12      1.0000 0.32747  0.68998  0.35030  Biso   1.000  N
  N13      1.0000 0.35622  0.93207  0.02622  Biso   1.000  N
  N14      1.0000 0.38495  0.84672  0.34727  Biso   1.000  N
  N15      1.0000 0.41370  0.07753  0.02683  Biso   1.000  N
  N16      1.0000 0.44245  0.98275  0.35027  Biso   1.000  N
  N17      1.0000 0.47118  0.20764  0.03026  Biso   1.000  N
  N18      1.0000 0.49990  0.10972  0.35327  Biso   1.000  N
  N19      1.0000 0.52870  0.33374  0.03251  Biso   1.000  N
  N20      1.0000 0.55735  0.23508  0.35493  Biso   1.000  N
  N21      1.0000 0.58620  0.45732  0.03415  Biso   1.000  N
  N22      1.0000 0.61482  0.35386  0.35799  Biso   1.000  N
  N23      1.0000 0.64369  0.56699  0.04060  Biso   1.000  N
  N24      1.0000 0.67232  0.45199  0.36819  Biso   1.000  N
  N25      1.0000 0.70110  0.65261  0.05176  Biso   1.000  N
  N26      1.0000 0.72974  0.53028  0.37669  Biso   1.000  N
  N27      1.0000 0.75861  0.73037  0.05776  Biso   1.000  N
  N28      1.0000 0.78722  0.61182  0.38020  Biso   1.000  N
  N29      1.0000 0.81596  0.82236  0.05794  Biso   1.000  N
  N30      1.0000 0.84476  0.72047  0.37866  Biso   1.000  N
  N31      1.0000 0.87345  0.95071  0.05621  Biso   1.000  N
  N32      1.0000 0.90237  0.86836  0.37622  Biso   1.000  N
  N33      1.0000 0.93082  0.11298  0.05295  Biso   1.000  N
  N34      1.0000 0.95969  0.02859  0.37474  Biso   1.000  N
  N35      1.0000 0.98935  0.26877  0.03886  Biso   1.000  N
