data_image0
_cell_length_a       29.8512
_cell_length_b       2.16408
_cell_length_c       2.4586
_cell_angle_alpha    65.4288
_cell_angle_beta     84.7962
_cell_angle_gamma    88.3493

_symmetry_space_group_name_H-M    "P 1"
_symmetry_int_tables_number       1

loop_
  _symmetry_equiv_pos_as_xyz
  'x, y, z'

loop_
  _atom_site_label
  _atom_site_occupancy
  _atom_site_fract_x
  _atom_site_fract_y
  _atom_site_fract_z
  _atom_site_thermal_displace_type
  _atom_site_B_iso_or_equiv
  _atom_site_type_symbol
  N1       1.0000 0.01383  0.68905  0.10104  Biso   1.000  N
  N2       1.0000 0.04859  0.52186  0.40733  Biso   1.000  N
  N3       1.0000 0.08322  0.69027  0.05222  Biso   1.000  N
  N4       1.0000 0.11679  0.52503  0.34838  Biso   1.000  N
  N5       1.0000 0.15141  0.69346  0.99323  Biso   1.000  N
  N6       1.0000 0.18617  0.52625  0.29948  Biso   1.000  N
  N7       1.0000 0.21311  0.08983  0.14138  Biso   1.000  N
  N8       1.0000 0.24830  0.92523  0.43940  Biso   1.000  N
  N9       1.0000 0.28273  0.08678  0.08112  Biso   1.000  N
  N10      1.0000 0.31654  0.91300  0.36937  Biso   1.000  N
  N11      1.0000 0.35099  0.08078  0.00177  Biso   1.000  N
  N12      1.0000 0.38484  0.90642  0.28791  Biso   1.000  N
  N13      1.0000 0.41933  0.06672  0.92875  Biso   1.000  N
  N14      1.0000 0.45437  0.90104  0.22705  Biso   1.000  N
  N15      1.0000 0.48140  0.46827  0.06302  Biso   1.000  N
  N16      1.0000 0.51664  0.31105  0.35543  Biso   1.000  N
  N17      1.0000 0.55124  0.47496  0.99328  Biso   1.000  N
  N18      1.0000 0.58622  0.32051  0.28545  Biso   1.000  N
  N19      1.0000 0.61378  0.89798  0.11426  Biso   1.000  N
  N20      1.0000 0.64876  0.74345  0.40639  Biso   1.000  N
  N21      1.0000 0.68335  0.90718  0.04425  Biso   1.000  N
  N22      1.0000 0.71859  0.74977  0.33664  Biso   1.000  N
  N23      1.0000 0.74563  0.31692  0.17263  Biso   1.000  N
  N24      1.0000 0.78066  0.15092  0.47095  Biso   1.000  N
  N25      1.0000 0.81515  0.31059  0.11187  Biso   1.000  N
  N26      1.0000 0.84900  0.13551  0.39801  Biso   1.000  N
  N27      1.0000 0.88346  0.30278  0.03055  Biso   1.000  N
  N28      1.0000 0.91726  0.12874  0.31893  Biso   1.000  N
  N29      1.0000 0.95170  0.29014  0.96087  Biso   1.000  N
  N30      1.0000 0.98689  0.12550  0.25904  Biso   1.000  N
