data_image0
_cell_length_a       22.8277
_cell_length_b       2.15256
_cell_length_c       2.4792
_cell_angle_alpha    65.4432
_cell_angle_beta     92.1707
_cell_angle_gamma    85.6176

_symmetry_space_group_name_H-M    "P 1"
_symmetry_int_tables_number       1

loop_
  _symmetry_equiv_pos_as_xyz
  'x, y, z'

loop_
  _atom_site_label
  _atom_site_occupancy
  _atom_site_fract_x
  _atom_site_fract_y
  _atom_site_fract_z
  _atom_site_thermal_displace_type
  _atom_site_B_iso_or_equiv
  _atom_site_type_symbol
  N1       1.0000 0.01452  0.75165  0.98469  Biso   1.000  N
  N2       1.0000 0.06212  0.53989  0.34516  Biso   1.000  N
  N3       1.0000 0.10807  0.65331  0.04536  Biso   1.000  N
  N4       1.0000 0.14313  0.05503  0.19776  Biso   1.000  N
  N5       1.0000 0.18892  0.17163  0.89062  Biso   1.000  N
  N6       1.0000 0.23415  0.94893  0.24052  Biso   1.000  N
  N7       1.0000 0.27839  0.04992  0.94369  Biso   1.000  N
  N8       1.0000 0.32358  0.80974  0.29683  Biso   1.000  N
  N9       1.0000 0.36803  0.89683  0.00735  Biso   1.000  N
  N10      1.0000 0.41326  0.64458  0.36516  Biso   1.000  N
  N11      1.0000 0.45748  0.72216  0.07831  Biso   1.000  N
  N12      1.0000 0.50262  0.46740  0.43712  Biso   1.000  N
  N13      1.0000 0.54718  0.55073  0.14970  Biso   1.000  N
  N14      1.0000 0.59221  0.30867  0.50405  Biso   1.000  N
  N15      1.0000 0.63654  0.40782  0.20760  Biso   1.000  N
  N16      1.0000 0.68156  0.18126  0.55848  Biso   1.000  N
  N17      1.0000 0.72767  0.30159  0.24887  Biso   1.000  N
  N18      1.0000 0.76247  0.69797  0.41773  Biso   1.000  N
  N19      1.0000 0.80876  0.83381  0.08239  Biso   1.000  N
  N20      1.0000 0.84385  0.23016  0.25132  Biso   1.000  N
  N21      1.0000 0.88970  0.35843  0.94079  Biso   1.000  N
  N22      1.0000 0.93500  0.15379  0.29388  Biso   1.000  N
  N23      1.0000 0.98077  0.27718  0.98764  Biso   1.000  N
