data_image0
_cell_length_a       37.7343
_cell_length_b       2.18408
_cell_length_c       2.44578
_cell_angle_alpha    63.5039
_cell_angle_beta     88.9668
_cell_angle_gamma    86.3822

_symmetry_space_group_name_H-M    "P 1"
_symmetry_int_tables_number       1

loop_
  _symmetry_equiv_pos_as_xyz
  'x, y, z'

loop_
  _atom_site_label
  _atom_site_occupancy
  _atom_site_fract_x
  _atom_site_fract_y
  _atom_site_fract_z
  _atom_site_thermal_displace_type
  _atom_site_B_iso_or_equiv
  _atom_site_type_symbol
  N1       1.0000 0.00905  0.65058  0.01180  Biso   1.000  N
  N2       1.0000 0.03737  0.44733  0.34962  Biso   1.000  N
  N3       1.0000 0.06459  0.56719  0.03211  Biso   1.000  N
  N4       1.0000 0.09183  0.36125  0.35658  Biso   1.000  N
  N5       1.0000 0.11913  0.48247  0.04025  Biso   1.000  N
  N6       1.0000 0.14662  0.29316  0.36161  Biso   1.000  N
  N7       1.0000 0.17376  0.43325  0.04318  Biso   1.000  N
  N8       1.0000 0.20121  0.26677  0.36615  Biso   1.000  N
  N9       1.0000 0.22820  0.42581  0.04879  Biso   1.000  N
  N10      1.0000 0.25579  0.27824  0.36941  Biso   1.000  N
  N11      1.0000 0.28270  0.45372  0.04986  Biso   1.000  N
  N12      1.0000 0.31012  0.32074  0.36604  Biso   1.000  N
  N13      1.0000 0.33705  0.49701  0.04135  Biso   1.000  N
  N14      1.0000 0.36458  0.35614  0.35542  Biso   1.000  N
  N15      1.0000 0.39155  0.52205  0.03236  Biso   1.000  N
  N16      1.0000 0.41905  0.36010  0.35128  Biso   1.000  N
  N17      1.0000 0.44623  0.50329  0.03493  Biso   1.000  N
  N18      1.0000 0.47365  0.31156  0.36124  Biso   1.000  N
  N19      1.0000 0.50091  0.42932  0.04743  Biso   1.000  N
  N20      1.0000 0.52815  0.21851  0.37278  Biso   1.000  N
  N21      1.0000 0.55563  0.31891  0.05864  Biso   1.000  N
  N22      1.0000 0.58270  0.09636  0.38380  Biso   1.000  N
  N23      1.0000 0.61017  0.18519  0.07248  Biso   1.000  N
  N24      1.0000 0.63711  0.95852  0.40509  Biso   1.000  N
  N25      1.0000 0.66474  0.04047  0.10194  Biso   1.000  N
  N26      1.0000 0.69169  0.81382  0.43891  Biso   1.000  N
  N27      1.0000 0.71913  0.89958  0.13505  Biso   1.000  N
  N28      1.0000 0.74632  0.68665  0.46629  Biso   1.000  N
  N29      1.0000 0.77442  0.81414  0.13983  Biso   1.000  N
  N30      1.0000 0.79573  0.22587  0.27123  Biso   1.000  N
  N31      1.0000 0.82364  0.36067  0.94221  Biso   1.000  N
  N32      1.0000 0.85103  0.16787  0.27020  Biso   1.000  N
  N33      1.0000 0.87855  0.29847  0.96468  Biso   1.000  N
  N34      1.0000 0.90554  0.10747  0.30177  Biso   1.000  N
  N35      1.0000 0.93311  0.23779  0.99759  Biso   1.000  N
  N36      1.0000 0.96032  0.04505  0.32892  Biso   1.000  N
  N37      1.0000 0.98862  0.17718  0.00416  Biso   1.000  N
