data_image0
_cell_length_a       29.7377
_cell_length_b       2.15614
_cell_length_c       2.47031
_cell_angle_alpha    65.6559
_cell_angle_beta     86.6756
_cell_angle_gamma    88.1474

_symmetry_space_group_name_H-M    "P 1"
_symmetry_int_tables_number       1

loop_
  _symmetry_equiv_pos_as_xyz
  'x, y, z'

loop_
  _atom_site_label
  _atom_site_occupancy
  _atom_site_fract_x
  _atom_site_fract_y
  _atom_site_fract_z
  _atom_site_thermal_displace_type
  _atom_site_B_iso_or_equiv
  _atom_site_type_symbol
  N1       1.0000 0.01183  0.64023  0.23540  Biso   1.000  N
  N2       1.0000 0.04672  0.46315  0.55709  Biso   1.000  N
  N3       1.0000 0.08143  0.61940  0.22137  Biso   1.000  N
  N4       1.0000 0.11504  0.44051  0.53511  Biso   1.000  N
  N5       1.0000 0.14979  0.59430  0.19962  Biso   1.000  N
  N6       1.0000 0.18386  0.41436  0.50735  Biso   1.000  N
  N7       1.0000 0.21796  0.57074  0.16147  Biso   1.000  N
  N8       1.0000 0.25230  0.39665  0.45968  Biso   1.000  N
  N9       1.0000 0.28762  0.56092  0.09872  Biso   1.000  N
  N10      1.0000 0.31429  0.99313  0.22032  Biso   1.000  N
  N11      1.0000 0.35004  0.15593  0.86273  Biso   1.000  N
  N12      1.0000 0.38387  0.98107  0.17015  Biso   1.000  N
  N13      1.0000 0.41837  0.13626  0.83123  Biso   1.000  N
  N14      1.0000 0.45344  0.95622  0.15447  Biso   1.000  N
  N15      1.0000 0.48048  0.51500  0.00525  Biso   1.000  N
  N16      1.0000 0.51540  0.33718  0.32336  Biso   1.000  N
  N17      1.0000 0.55017  0.49469  0.98163  Biso   1.000  N
  N18      1.0000 0.58406  0.31845  0.28006  Biso   1.000  N
  N19      1.0000 0.61847  0.49088  0.92146  Biso   1.000  N
  N20      1.0000 0.65263  0.31764  0.21481  Biso   1.000  N
  N21      1.0000 0.68686  0.48138  0.86319  Biso   1.000  N
  N22      1.0000 0.72251  0.30605  0.17401  Biso   1.000  N
  N23      1.0000 0.74889  0.87093  0.00852  Biso   1.000  N
  N24      1.0000 0.78485  0.68719  0.34379  Biso   1.000  N
  N25      1.0000 0.81140  0.25016  0.17776  Biso   1.000  N
  N26      1.0000 0.84688  0.07941  0.48542  Biso   1.000  N
  N27      1.0000 0.88128  0.24984  0.12924  Biso   1.000  N
  N28      1.0000 0.91508  0.08727  0.42413  Biso   1.000  N
  N29      1.0000 0.94966  0.25550  0.07162  Biso   1.000  N
  N30      1.0000 0.98481  0.08555  0.38105  Biso   1.000  N
