data_image0
_cell_length_a       36.5623
_cell_length_b       2.14949
_cell_length_c       2.46345
_cell_angle_alpha    65.9938
_cell_angle_beta     89.4573
_cell_angle_gamma    88.5362

_symmetry_space_group_name_H-M    "P 1"
_symmetry_int_tables_number       1

loop_
  _symmetry_equiv_pos_as_xyz
  'x, y, z'

loop_
  _atom_site_label
  _atom_site_occupancy
  _atom_site_fract_x
  _atom_site_fract_y
  _atom_site_fract_z
  _atom_site_thermal_displace_type
  _atom_site_B_iso_or_equiv
  _atom_site_type_symbol
  N1       1.0000 0.01088  0.86553  0.71189  Biso   1.000  N
  N2       1.0000 0.04074  0.66389  0.08867  Biso   1.000  N
  N3       1.0000 0.06197  0.22149  0.94041  Biso   1.000  N
  N4       1.0000 0.09109  0.04026  0.27541  Biso   1.000  N
  N5       1.0000 0.11869  0.19609  0.94779  Biso   1.000  N
  N6       1.0000 0.14663  0.02538  0.26254  Biso   1.000  N
  N7       1.0000 0.17416  0.19314  0.92367  Biso   1.000  N
  N8       1.0000 0.20217  0.02892  0.23494  Biso   1.000  N
  N9       1.0000 0.22992  0.18656  0.90611  Biso   1.000  N
  N10      1.0000 0.25872  0.01629  0.23147  Biso   1.000  N
  N11      1.0000 0.28087  0.57424  0.08877  Biso   1.000  N
  N12      1.0000 0.30949  0.39912  0.42488  Biso   1.000  N
  N13      1.0000 0.33732  0.55340  0.10147  Biso   1.000  N
  N14      1.0000 0.36623  0.37732  0.43728  Biso   1.000  N
  N15      1.0000 0.38784  0.93032  0.30306  Biso   1.000  N
  N16      1.0000 0.41674  0.75022  0.64146  Biso   1.000  N
  N17      1.0000 0.44454  0.90238  0.32008  Biso   1.000  N
  N18      1.0000 0.47239  0.72387  0.64586  Biso   1.000  N
  N19      1.0000 0.50009  0.88156  0.31624  Biso   1.000  N
  N20      1.0000 0.52803  0.70643  0.63556  Biso   1.000  N
  N21      1.0000 0.55673  0.86144  0.29582  Biso   1.000  N
  N22      1.0000 0.57857  0.28738  0.43480  Biso   1.000  N
  N23      1.0000 0.60744  0.43599  0.10572  Biso   1.000  N
  N24      1.0000 0.63518  0.24952  0.43307  Biso   1.000  N
  N25      1.0000 0.66305  0.38875  0.11859  Biso   1.000  N
  N26      1.0000 0.69067  0.19113  0.45724  Biso   1.000  N
  N27      1.0000 0.71864  0.32936  0.14682  Biso   1.000  N
  N28      1.0000 0.74631  0.14478  0.47727  Biso   1.000  N
  N29      1.0000 0.77523  0.28786  0.15145  Biso   1.000  N
  N30      1.0000 0.79715  0.70932  0.28923  Biso   1.000  N
  N31      1.0000 0.82591  0.85006  0.96135  Biso   1.000  N
  N32      1.0000 0.85396  0.67188  0.28578  Biso   1.000  N
  N33      1.0000 0.88250  0.81239  0.95973  Biso   1.000  N
  N34      1.0000 0.90505  0.22775  0.10087  Biso   1.000  N
  N35      1.0000 0.93333  0.37560  0.76569  Biso   1.000  N
  N36      1.0000 0.96141  0.20260  0.09049  Biso   1.000  N
  N37      1.0000 0.99036  0.35027  0.76356  Biso   1.000  N
