data_image0
_cell_length_a       32.8165
_cell_length_b       2.15908
_cell_length_c       2.46426
_cell_angle_alpha    65.549
_cell_angle_beta     92.6624
_cell_angle_gamma    88.3522

_symmetry_space_group_name_H-M    "P 1"
_symmetry_int_tables_number       1

loop_
  _symmetry_equiv_pos_as_xyz
  'x, y, z'

loop_
  _atom_site_label
  _atom_site_occupancy
  _atom_site_fract_x
  _atom_site_fract_y
  _atom_site_fract_z
  _atom_site_thermal_displace_type
  _atom_site_B_iso_or_equiv
  _atom_site_type_symbol
  N1       1.0000 0.01137  0.73490  0.02854  Biso   1.000  N
  N2       1.0000 0.04410  0.54026  0.38933  Biso   1.000  N
  N3       1.0000 0.07472  0.67704  0.08620  Biso   1.000  N
  N4       1.0000 0.10613  0.48361  0.43439  Biso   1.000  N
  N5       1.0000 0.13675  0.62648  0.12735  Biso   1.000  N
  N6       1.0000 0.16820  0.43783  0.47044  Biso   1.000  N
  N7       1.0000 0.19995  0.58275  0.15453  Biso   1.000  N
  N8       1.0000 0.22430  0.00355  0.30435  Biso   1.000  N
  N9       1.0000 0.25613  0.14432  0.99506  Biso   1.000  N
  N10      1.0000 0.28739  0.94871  0.34475  Biso   1.000  N
  N11      1.0000 0.31821  0.08170  0.05111  Biso   1.000  N
  N12      1.0000 0.34929  0.87651  0.41277  Biso   1.000  N
  N13      1.0000 0.38029  0.00613  0.12401  Biso   1.000  N
  N14      1.0000 0.41144  0.80794  0.47899  Biso   1.000  N
  N15      1.0000 0.44347  0.94185  0.17970  Biso   1.000  N
  N16      1.0000 0.46809  0.35438  0.34160  Biso   1.000  N
  N17      1.0000 0.50012  0.48719  0.04002  Biso   1.000  N
  N18      1.0000 0.53121  0.29337  0.39587  Biso   1.000  N
  N19      1.0000 0.56331  0.42770  0.09398  Biso   1.000  N
  N20      1.0000 0.58772  0.84410  0.24954  Biso   1.000  N
  N21      1.0000 0.61971  0.97917  0.94925  Biso   1.000  N
  N22      1.0000 0.65074  0.77917  0.30587  Biso   1.000  N
  N23      1.0000 0.68164  0.91239  0.01548  Biso   1.000  N
  N24      1.0000 0.71272  0.71273  0.37086  Biso   1.000  N
  N25      1.0000 0.74456  0.84783  0.06757  Biso   1.000  N
  N26      1.0000 0.76911  0.26411  0.22112  Biso   1.000  N
  N27      1.0000 0.80091  0.40163  0.91506  Biso   1.000  N
  N28      1.0000 0.83227  0.20554  0.26191  Biso   1.000  N
  N29      1.0000 0.86277  0.34249  0.96181  Biso   1.000  N
  N30      1.0000 0.89440  0.14502  0.30985  Biso   1.000  N
  N31      1.0000 0.92478  0.28615  0.00602  Biso   1.000  N
  N32      1.0000 0.95620  0.09669  0.34895  Biso   1.000  N
  N33      1.0000 0.98799  0.23925  0.03871  Biso   1.000  N
