data_image0
_cell_length_a       28.7137
_cell_length_b       2.15
_cell_length_c       2.46878
_cell_angle_alpha    65.7262
_cell_angle_beta     89.1006
_cell_angle_gamma    88.0342

_symmetry_space_group_name_H-M    "P 1"
_symmetry_int_tables_number       1

loop_
  _symmetry_equiv_pos_as_xyz
  'x, y, z'

loop_
  _atom_site_label
  _atom_site_occupancy
  _atom_site_fract_x
  _atom_site_fract_y
  _atom_site_fract_z
  _atom_site_thermal_displace_type
  _atom_site_B_iso_or_equiv
  _atom_site_type_symbol
  N1       1.0000 0.01426  0.74999  0.96902  Biso   1.000  N
  N2       1.0000 0.05089  0.57409  0.30012  Biso   1.000  N
  N3       1.0000 0.08651  0.72181  0.97353  Biso   1.000  N
  N4       1.0000 0.12291  0.54031  0.30877  Biso   1.000  N
  N5       1.0000 0.15091  0.09273  0.17000  Biso   1.000  N
  N6       1.0000 0.18746  0.90910  0.50875  Biso   1.000  N
  N7       1.0000 0.22297  0.06107  0.18756  Biso   1.000  N
  N8       1.0000 0.25820  0.88322  0.51285  Biso   1.000  N
  N9       1.0000 0.29500  0.03760  0.17494  Biso   1.000  N
  N10      1.0000 0.32268  0.46323  0.31078  Biso   1.000  N
  N11      1.0000 0.35905  0.61453  0.96626  Biso   1.000  N
  N12      1.0000 0.39469  0.42421  0.28075  Biso   1.000  N
  N13      1.0000 0.42976  0.56565  0.94886  Biso   1.000  N
  N14      1.0000 0.46533  0.37393  0.26921  Biso   1.000  N
  N15      1.0000 0.50097  0.52271  0.94870  Biso   1.000  N
  N16      1.0000 0.53601  0.33749  0.28020  Biso   1.000  N
  N17      1.0000 0.57165  0.49086  0.96458  Biso   1.000  N
  N18      1.0000 0.60807  0.30317  0.30715  Biso   1.000  N
  N19      1.0000 0.63575  0.85286  0.16954  Biso   1.000  N
  N20      1.0000 0.67248  0.66626  0.50837  Biso   1.000  N
  N21      1.0000 0.70782  0.82051  0.18403  Biso   1.000  N
  N22      1.0000 0.74310  0.64232  0.50591  Biso   1.000  N
  N23      1.0000 0.77985  0.79883  0.16471  Biso   1.000  N
  N24      1.0000 0.80759  0.22396  0.29878  Biso   1.000  N
  N25      1.0000 0.84392  0.37242  0.95923  Biso   1.000  N
  N26      1.0000 0.87983  0.17746  0.28401  Biso   1.000  N
  N27      1.0000 0.91468  0.31105  0.96205  Biso   1.000  N
  N28      1.0000 0.95044  0.11713  0.29254  Biso   1.000  N
  N29      1.0000 0.98726  0.26403  0.96379  Biso   1.000  N
