data_image0
_cell_length_a       34.5076
_cell_length_b       2.16595
_cell_length_c       2.45215
_cell_angle_alpha    63.7389
_cell_angle_beta     88.7882
_cell_angle_gamma    92.0728

_symmetry_space_group_name_H-M    "P 1"
_symmetry_int_tables_number       1

loop_
  _symmetry_equiv_pos_as_xyz
  'x, y, z'

loop_
  _atom_site_label
  _atom_site_occupancy
  _atom_site_fract_x
  _atom_site_fract_y
  _atom_site_fract_z
  _atom_site_thermal_displace_type
  _atom_site_B_iso_or_equiv
  _atom_site_type_symbol
  N1       1.0000 0.01211  0.67272  0.07603  Biso   1.000  N
  N2       1.0000 0.04273  0.53779  0.39589  Biso   1.000  N
  N3       1.0000 0.07268  0.73166  0.05490  Biso   1.000  N
  N4       1.0000 0.10320  0.59596  0.37517  Biso   1.000  N
  N5       1.0000 0.12658  0.18418  0.23177  Biso   1.000  N
  N6       1.0000 0.15720  0.05476  0.54366  Biso   1.000  N
  N7       1.0000 0.18710  0.26015  0.19977  Biso   1.000  N
  N8       1.0000 0.21704  0.16471  0.49066  Biso   1.000  N
  N9       1.0000 0.24673  0.37619  0.14759  Biso   1.000  N
  N10      1.0000 0.27675  0.26262  0.44754  Biso   1.000  N
  N11      1.0000 0.30667  0.45149  0.11266  Biso   1.000  N
  N12      1.0000 0.33643  0.31213  0.41850  Biso   1.000  N
  N13      1.0000 0.36648  0.48142  0.08597  Biso   1.000  N
  N14      1.0000 0.39623  0.32554  0.38770  Biso   1.000  N
  N15      1.0000 0.42631  0.47998  0.05071  Biso   1.000  N
  N16      1.0000 0.45582  0.30699  0.35349  Biso   1.000  N
  N17      1.0000 0.48586  0.44755  0.02044  Biso   1.000  N
  N18      1.0000 0.51550  0.26984  0.32731  Biso   1.000  N
  N19      1.0000 0.54552  0.40266  0.00123  Biso   1.000  N
  N20      1.0000 0.57504  0.22522  0.31178  Biso   1.000  N
  N21      1.0000 0.60506  0.37270  0.97927  Biso   1.000  N
  N22      1.0000 0.63482  0.21046  0.27998  Biso   1.000  N
  N23      1.0000 0.66484  0.37520  0.94109  Biso   1.000  N
  N24      1.0000 0.69448  0.22635  0.24006  Biso   1.000  N
  N25      1.0000 0.72460  0.40409  0.90221  Biso   1.000  N
  N26      1.0000 0.75514  0.26339  0.21942  Biso   1.000  N
  N27      1.0000 0.77840  0.84953  0.07611  Biso   1.000  N
  N28      1.0000 0.80911  0.71745  0.38988  Biso   1.000  N
  N29      1.0000 0.83886  0.92510  0.04458  Biso   1.000  N
  N30      1.0000 0.86895  0.84425  0.33132  Biso   1.000  N
  N31      1.0000 0.89830  0.07241  0.97530  Biso   1.000  N
  N32      1.0000 0.92844  0.99902  0.25820  Biso   1.000  N
  N33      1.0000 0.95810  0.21140  0.90975  Biso   1.000  N
  N34      1.0000 0.98892  0.08509  0.22004  Biso   1.000  N
