data_image0
_cell_length_a       27.6631
_cell_length_b       2.16805
_cell_length_c       2.46984
_cell_angle_alpha    65.3963
_cell_angle_beta     85.9324
_cell_angle_gamma    87.8499

_symmetry_space_group_name_H-M    "P 1"
_symmetry_int_tables_number       1

loop_
  _symmetry_equiv_pos_as_xyz
  'x, y, z'

loop_
  _atom_site_label
  _atom_site_occupancy
  _atom_site_fract_x
  _atom_site_fract_y
  _atom_site_fract_z
  _atom_site_thermal_displace_type
  _atom_site_B_iso_or_equiv
  _atom_site_type_symbol
  N1       1.0000 0.01723  0.76215  0.95032  Biso   1.000  N
  N2       1.0000 0.05550  0.57571  0.28920  Biso   1.000  N
  N3       1.0000 0.08423  0.13690  0.12429  Biso   1.000  N
  N4       1.0000 0.12205  0.96223  0.43576  Biso   1.000  N
  N5       1.0000 0.15919  0.12936  0.08253  Biso   1.000  N
  N6       1.0000 0.19550  0.96328  0.37844  Biso   1.000  N
  N7       1.0000 0.23265  0.13129  0.02296  Biso   1.000  N
  N8       1.0000 0.27043  0.96409  0.32738  Biso   1.000  N
  N9       1.0000 0.29958  0.51956  0.17908  Biso   1.000  N
  N10      1.0000 0.33710  0.34884  0.49058  Biso   1.000  N
  N11      1.0000 0.37448  0.51106  0.14313  Biso   1.000  N
  N12      1.0000 0.41052  0.33701  0.44932  Biso   1.000  N
  N13      1.0000 0.44796  0.49543  0.10786  Biso   1.000  N
  N14      1.0000 0.48539  0.31613  0.42674  Biso   1.000  N
  N15      1.0000 0.51429  0.87071  0.27864  Biso   1.000  N
  N16      1.0000 0.55201  0.69056  0.59683  Biso   1.000  N
  N17      1.0000 0.58887  0.84837  0.25301  Biso   1.000  N
  N18      1.0000 0.62549  0.67412  0.55145  Biso   1.000  N
  N19      1.0000 0.66341  0.84008  0.18519  Biso   1.000  N
  N20      1.0000 0.69230  0.27556  0.29970  Biso   1.000  N
  N21      1.0000 0.72999  0.44337  0.93001  Biso   1.000  N
  N22      1.0000 0.76707  0.26621  0.21969  Biso   1.000  N
  N23      1.0000 0.80347  0.42582  0.86355  Biso   1.000  N
  N24      1.0000 0.84038  0.24735  0.16055  Biso   1.000  N
  N25      1.0000 0.87761  0.40359  0.81808  Biso   1.000  N
  N26      1.0000 0.91369  0.22614  0.12956  Biso   1.000  N
  N27      1.0000 0.95099  0.38319  0.79144  Biso   1.000  N
  N28      1.0000 0.98859  0.20190  0.11471  Biso   1.000  N
