data_image0
_cell_length_a       34.204
_cell_length_b       2.18486
_cell_length_c       2.46212
_cell_angle_alpha    63.6164
_cell_angle_beta     86.1804
_cell_angle_gamma    87.9196

_symmetry_space_group_name_H-M    "P 1"
_symmetry_int_tables_number       1

loop_
  _symmetry_equiv_pos_as_xyz
  'x, y, z'

loop_
  _atom_site_label
  _atom_site_occupancy
  _atom_site_fract_x
  _atom_site_fract_y
  _atom_site_fract_z
  _atom_site_thermal_displace_type
  _atom_site_B_iso_or_equiv
  _atom_site_type_symbol
  N1       1.0000 0.01220  0.75513  0.11734  Biso   1.000  N
  N2       1.0000 0.04328  0.58911  0.42087  Biso   1.000  N
  N3       1.0000 0.07318  0.76147  0.06086  Biso   1.000  N
  N4       1.0000 0.10324  0.62845  0.33727  Biso   1.000  N
  N5       1.0000 0.13318  0.80091  0.97834  Biso   1.000  N
  N6       1.0000 0.16418  0.63602  0.28403  Biso   1.000  N
  N7       1.0000 0.18730  0.20605  0.12130  Biso   1.000  N
  N8       1.0000 0.21866  0.02031  0.46092  Biso   1.000  N
  N9       1.0000 0.24177  0.59057  0.29769  Biso   1.000  N
  N10      1.0000 0.27264  0.42055  0.60990  Biso   1.000  N
  N11      1.0000 0.30270  0.58105  0.25799  Biso   1.000  N
  N12      1.0000 0.33276  0.42366  0.54542  Biso   1.000  N
  N13      1.0000 0.36273  0.58253  0.19332  Biso   1.000  N
  N14      1.0000 0.39305  0.41790  0.48156  Biso   1.000  N
  N15      1.0000 0.42313  0.56564  0.13961  Biso   1.000  N
  N16      1.0000 0.45320  0.38718  0.43902  Biso   1.000  N
  N17      1.0000 0.48333  0.52241  0.10203  Biso   1.000  N
  N18      1.0000 0.51329  0.33372  0.40332  Biso   1.000  N
  N19      1.0000 0.54354  0.45717  0.06553  Biso   1.000  N
  N20      1.0000 0.57327  0.26084  0.36437  Biso   1.000  N
  N21      1.0000 0.60362  0.37509  0.02477  Biso   1.000  N
  N22      1.0000 0.63330  0.16903  0.32345  Biso   1.000  N
  N23      1.0000 0.66352  0.27389  0.98713  Biso   1.000  N
  N24      1.0000 0.69329  0.06318  0.29055  Biso   1.000  N
  N25      1.0000 0.72345  0.16975  0.95693  Biso   1.000  N
  N26      1.0000 0.75329  0.96198  0.25976  Biso   1.000  N
  N27      1.0000 0.78340  0.07957  0.92089  Biso   1.000  N
  N28      1.0000 0.81355  0.88280  0.21185  Biso   1.000  N
  N29      1.0000 0.84354  0.01535  0.86184  Biso   1.000  N
  N30      1.0000 0.87355  0.83100  0.14976  Biso   1.000  N
  N31      1.0000 0.90362  0.97691  0.79783  Biso   1.000  N
  N32      1.0000 0.93453  0.80260  0.10878  Biso   1.000  N
  N33      1.0000 0.95764  0.37228  0.94421  Biso   1.000  N
  N34      1.0000 0.98909  0.18589  0.28159  Biso   1.000  N
