data_image0
_cell_length_a       26.2157
_cell_length_b       2.18193
_cell_length_c       2.46331
_cell_angle_alpha    63.6036
_cell_angle_beta     88.8969
_cell_angle_gamma    94.2955

_symmetry_space_group_name_H-M    "P 1"
_symmetry_int_tables_number       1

loop_
  _symmetry_equiv_pos_as_xyz
  'x, y, z'

loop_
  _atom_site_label
  _atom_site_occupancy
  _atom_site_fract_x
  _atom_site_fract_y
  _atom_site_fract_z
  _atom_site_thermal_displace_type
  _atom_site_B_iso_or_equiv
  _atom_site_type_symbol
  N1       1.0000 0.01116  0.67349  0.26079  Biso   1.000  N
  N2       1.0000 0.05110  0.54557  0.57545  Biso   1.000  N
  N3       1.0000 0.09070  0.74322  0.23251  Biso   1.000  N
  N4       1.0000 0.12979  0.62487  0.52881  Biso   1.000  N
  N5       1.0000 0.16935  0.83263  0.18851  Biso   1.000  N
  N6       1.0000 0.20869  0.74056  0.48626  Biso   1.000  N
  N7       1.0000 0.24802  0.97500  0.14543  Biso   1.000  N
  N8       1.0000 0.28723  0.91090  0.43910  Biso   1.000  N
  N9       1.0000 0.32629  0.16552  0.09081  Biso   1.000  N
  N10      1.0000 0.36573  0.11979  0.37650  Biso   1.000  N
  N11      1.0000 0.40447  0.38499  0.02751  Biso   1.000  N
  N12      1.0000 0.44399  0.33224  0.31638  Biso   1.000  N
  N13      1.0000 0.48298  0.58743  0.97171  Biso   1.000  N
  N14      1.0000 0.52231  0.52772  0.26617  Biso   1.000  N
  N15      1.0000 0.56131  0.78256  0.92215  Biso   1.000  N
  N16      1.0000 0.60079  0.73005  0.20995  Biso   1.000  N
  N17      1.0000 0.63990  0.98287  0.85913  Biso   1.000  N
  N18      1.0000 0.67914  0.92579  0.14408  Biso   1.000  N
  N19      1.0000 0.71820  0.16091  0.78957  Biso   1.000  N
  N20      1.0000 0.75889  0.04961  0.09915  Biso   1.000  N
  N21      1.0000 0.78900  0.65983  0.93570  Biso   1.000  N
  N22      1.0000 0.82985  0.52312  0.28304  Biso   1.000  N
  N23      1.0000 0.86025  0.13308  0.12045  Biso   1.000  N
  N24      1.0000 0.90043  0.00848  0.43643  Biso   1.000  N
  N25      1.0000 0.94032  0.20484  0.08921  Biso   1.000  N
  N26      1.0000 0.98011  0.07493  0.40519  Biso   1.000  N
