data_image0
_cell_length_a       37.506
_cell_length_b       2.17903
_cell_length_c       2.45194
_cell_angle_alpha    63.5905
_cell_angle_beta     89.8525
_cell_angle_gamma    86.9846

_symmetry_space_group_name_H-M    "P 1"
_symmetry_int_tables_number       1

loop_
  _symmetry_equiv_pos_as_xyz
  'x, y, z'

loop_
  _atom_site_label
  _atom_site_occupancy
  _atom_site_fract_x
  _atom_site_fract_y
  _atom_site_fract_z
  _atom_site_thermal_displace_type
  _atom_site_B_iso_or_equiv
  _atom_site_type_symbol
  N1       1.0000 0.00767  0.72678  0.90747  Biso   1.000  N
  N2       1.0000 0.03618  0.53959  0.24673  Biso   1.000  N
  N3       1.0000 0.06353  0.68017  0.93173  Biso   1.000  N
  N4       1.0000 0.09101  0.50576  0.25708  Biso   1.000  N
  N5       1.0000 0.11839  0.63727  0.94505  Biso   1.000  N
  N6       1.0000 0.14597  0.43439  0.27565  Biso   1.000  N
  N7       1.0000 0.17342  0.53405  0.97106  Biso   1.000  N
  N8       1.0000 0.20075  0.30077  0.30583  Biso   1.000  N
  N9       1.0000 0.22805  0.37931  0.99939  Biso   1.000  N
  N10      1.0000 0.25541  0.13294  0.32936  Biso   1.000  N
  N11      1.0000 0.28270  0.20264  0.02076  Biso   1.000  N
  N12      1.0000 0.30993  0.95051  0.34835  Biso   1.000  N
  N13      1.0000 0.33724  0.01900  0.03952  Biso   1.000  N
  N14      1.0000 0.36446  0.77136  0.37130  Biso   1.000  N
  N15      1.0000 0.39183  0.84384  0.06632  Biso   1.000  N
  N16      1.0000 0.41913  0.60344  0.39956  Biso   1.000  N
  N17      1.0000 0.44653  0.68460  0.09400  Biso   1.000  N
  N18      1.0000 0.47385  0.45461  0.42494  Biso   1.000  N
  N19      1.0000 0.50138  0.54802  0.11649  Biso   1.000  N
  N20      1.0000 0.52863  0.32762  0.44765  Biso   1.000  N
  N21      1.0000 0.55620  0.42860  0.14043  Biso   1.000  N
  N22      1.0000 0.58349  0.21633  0.47430  Biso   1.000  N
  N23      1.0000 0.61123  0.32380  0.17409  Biso   1.000  N
  N24      1.0000 0.63849  0.12003  0.51310  Biso   1.000  N
  N25      1.0000 0.66594  0.24236  0.20792  Biso   1.000  N
  N26      1.0000 0.69344  0.04966  0.53988  Biso   1.000  N
  N27      1.0000 0.72153  0.18976  0.21238  Biso   1.000  N
  N28      1.0000 0.74292  0.60437  0.34715  Biso   1.000  N
  N29      1.0000 0.77113  0.74815  0.02701  Biso   1.000  N
  N30      1.0000 0.79860  0.57840  0.36106  Biso   1.000  N
  N31      1.0000 0.82592  0.74957  0.06534  Biso   1.000  N
  N32      1.0000 0.85346  0.58078  0.39928  Biso   1.000  N
  N33      1.0000 0.88156  0.72637  0.08088  Biso   1.000  N
  N34      1.0000 0.90311  0.14189  0.21549  Biso   1.000  N
  N35      1.0000 0.93117  0.28683  0.89027  Biso   1.000  N
  N36      1.0000 0.95868  0.10262  0.22560  Biso   1.000  N
  N37      1.0000 0.98704  0.24630  0.90259  Biso   1.000  N
