data_image0
_cell_length_a       34.9486
_cell_length_b       2.20013
_cell_length_c       2.4409
_cell_angle_alpha    63.22
_cell_angle_beta     87.995
_cell_angle_gamma    85.6862

_symmetry_space_group_name_H-M    "P 1"
_symmetry_int_tables_number       1

loop_
  _symmetry_equiv_pos_as_xyz
  'x, y, z'

loop_
  _atom_site_label
  _atom_site_occupancy
  _atom_site_fract_x
  _atom_site_fract_y
  _atom_site_fract_z
  _atom_site_thermal_displace_type
  _atom_site_B_iso_or_equiv
  _atom_site_type_symbol
  N1       1.0000 0.01403  0.98916  0.07776  Biso   1.000  N
  N2       1.0000 0.04344  0.76247  0.40005  Biso   1.000  N
  N3       1.0000 0.07294  0.87134  0.07761  Biso   1.000  N
  N4       1.0000 0.10252  0.67281  0.39703  Biso   1.000  N
  N5       1.0000 0.13191  0.80875  0.07175  Biso   1.000  N
  N6       1.0000 0.16158  0.63432  0.38785  Biso   1.000  N
  N7       1.0000 0.19085  0.78727  0.06022  Biso   1.000  N
  N8       1.0000 0.22057  0.62628  0.37387  Biso   1.000  N
  N9       1.0000 0.24974  0.78651  0.04467  Biso   1.000  N
  N10      1.0000 0.27949  0.62968  0.35719  Biso   1.000  N
  N11      1.0000 0.30865  0.78981  0.02768  Biso   1.000  N
  N12      1.0000 0.33839  0.62793  0.34096  Biso   1.000  N
  N13      1.0000 0.36764  0.77894  0.01279  Biso   1.000  N
  N14      1.0000 0.39734  0.60078  0.32858  Biso   1.000  N
  N15      1.0000 0.42672  0.73267  0.00289  Biso   1.000  N
  N16      1.0000 0.45631  0.53060  0.32194  Biso   1.000  N
  N17      1.0000 0.48579  0.63849  0.99930  Biso   1.000  N
  N18      1.0000 0.51523  0.41438  0.32123  Biso   1.000  N
  N19      1.0000 0.54476  0.50224  0.00137  Biso   1.000  N
  N20      1.0000 0.57406  0.26468  0.32531  Biso   1.000  N
  N21      1.0000 0.60362  0.34051  0.00750  Biso   1.000  N
  N22      1.0000 0.63281  0.09653  0.33307  Biso   1.000  N
  N23      1.0000 0.66241  0.16493  0.01714  Biso   1.000  N
  N24      1.0000 0.69152  0.91608  0.34421  Biso   1.000  N
  N25      1.0000 0.72113  0.97768  0.02965  Biso   1.000  N
  N26      1.0000 0.75017  0.72280  0.35750  Biso   1.000  N
  N27      1.0000 0.77974  0.77734  0.04351  Biso   1.000  N
  N28      1.0000 0.80875  0.51678  0.37092  Biso   1.000  N
  N29      1.0000 0.83825  0.56689  0.05620  Biso   1.000  N
  N30      1.0000 0.86728  0.30417  0.38220  Biso   1.000  N
  N31      1.0000 0.89674  0.35554  0.06611  Biso   1.000  N
  N32      1.0000 0.92583  0.09613  0.39104  Biso   1.000  N
  N33      1.0000 0.95530  0.15686  0.07348  Biso   1.000  N
  N34      1.0000 0.98453  0.90865  0.39743  Biso   1.000  N
