data_image0
_cell_length_a       30.5637
_cell_length_b       2.15062
_cell_length_c       2.46672
_cell_angle_alpha    65.986
_cell_angle_beta     88.9511
_cell_angle_gamma    90.17

_symmetry_space_group_name_H-M    "P 1"
_symmetry_int_tables_number       1

loop_
  _symmetry_equiv_pos_as_xyz
  'x, y, z'

loop_
  _atom_site_label
  _atom_site_occupancy
  _atom_site_fract_x
  _atom_site_fract_y
  _atom_site_fract_z
  _atom_site_thermal_displace_type
  _atom_site_B_iso_or_equiv
  _atom_site_type_symbol
  N1       1.0000 0.01333  0.70761  0.11287  Biso   1.000  N
  N2       1.0000 0.04758  0.54430  0.43877  Biso   1.000  N
  N3       1.0000 0.08121  0.71082  0.10877  Biso   1.000  N
  N4       1.0000 0.11508  0.54432  0.44014  Biso   1.000  N
  N5       1.0000 0.14145  0.10696  0.30316  Biso   1.000  N
  N6       1.0000 0.17532  0.93728  0.63757  Biso   1.000  N
  N7       1.0000 0.20891  0.10171  0.31298  Biso   1.000  N
  N8       1.0000 0.24188  0.93780  0.62964  Biso   1.000  N
  N9       1.0000 0.27633  0.11036  0.28576  Biso   1.000  N
  N10      1.0000 0.30248  0.55062  0.41718  Biso   1.000  N
  N11      1.0000 0.33669  0.72064  0.07290  Biso   1.000  N
  N12      1.0000 0.37016  0.55947  0.38560  Biso   1.000  N
  N13      1.0000 0.40425  0.72733  0.03916  Biso   1.000  N
  N14      1.0000 0.43049  0.16927  0.16504  Biso   1.000  N
  N15      1.0000 0.46479  0.33614  0.82331  Biso   1.000  N
  N16      1.0000 0.49803  0.17165  0.13667  Biso   1.000  N
  N17      1.0000 0.53136  0.33393  0.80859  Biso   1.000  N
  N18      1.0000 0.56441  0.16598  0.12757  Biso   1.000  N
  N19      1.0000 0.59792  0.33394  0.79951  Biso   1.000  N
  N20      1.0000 0.63087  0.17358  0.11722  Biso   1.000  N
  N21      1.0000 0.66443  0.34286  0.79130  Biso   1.000  N
  N22      1.0000 0.69847  0.18263  0.11945  Biso   1.000  N
  N23      1.0000 0.72480  0.74567  0.98411  Biso   1.000  N
  N24      1.0000 0.75877  0.58606  0.31385  Biso   1.000  N
  N25      1.0000 0.79245  0.75727  0.98486  Biso   1.000  N
  N26      1.0000 0.82651  0.59575  0.31214  Biso   1.000  N
  N27      1.0000 0.85277  0.16166  0.16728  Biso   1.000  N
  N28      1.0000 0.88722  0.99904  0.49193  Biso   1.000  N
  N29      1.0000 0.92032  0.17411  0.15898  Biso   1.000  N
  N30      1.0000 0.95363  0.02157  0.46864  Biso   1.000  N
  N31      1.0000 0.98809  0.20215  0.12004  Biso   1.000  N
