data_image0
_cell_length_a       26.2471
_cell_length_b       2.16467
_cell_length_c       2.45902
_cell_angle_alpha    63.883
_cell_angle_beta     90.5722
_cell_angle_gamma    93.0231

_symmetry_space_group_name_H-M    "P 1"
_symmetry_int_tables_number       1

loop_
  _symmetry_equiv_pos_as_xyz
  'x, y, z'

loop_
  _atom_site_label
  _atom_site_occupancy
  _atom_site_fract_x
  _atom_site_fract_y
  _atom_site_fract_z
  _atom_site_thermal_displace_type
  _atom_site_B_iso_or_equiv
  _atom_site_type_symbol
  N1       1.0000 0.01270  0.57962  0.06066  Biso   1.000  N
  N2       1.0000 0.05291  0.42622  0.39142  Biso   1.000  N
  N3       1.0000 0.09222  0.57610  0.06478  Biso   1.000  N
  N4       1.0000 0.13097  0.38477  0.37500  Biso   1.000  N
  N5       1.0000 0.17006  0.52224  0.04650  Biso   1.000  N
  N6       1.0000 0.20945  0.34431  0.35264  Biso   1.000  N
  N7       1.0000 0.24840  0.50313  0.02278  Biso   1.000  N
  N8       1.0000 0.28775  0.34854  0.33432  Biso   1.000  N
  N9       1.0000 0.32684  0.52664  0.00673  Biso   1.000  N
  N10      1.0000 0.36644  0.40053  0.31521  Biso   1.000  N
  N11      1.0000 0.40558  0.60214  0.98498  Biso   1.000  N
  N12      1.0000 0.44482  0.49640  0.29166  Biso   1.000  N
  N13      1.0000 0.48409  0.70001  0.96017  Biso   1.000  N
  N14      1.0000 0.52436  0.57005  0.28815  Biso   1.000  N
  N15      1.0000 0.55504  0.16075  0.15023  Biso   1.000  N
  N16      1.0000 0.59531  0.02933  0.47926  Biso   1.000  N
  N17      1.0000 0.63461  0.23567  0.14961  Biso   1.000  N
  N18      1.0000 0.67372  0.13467  0.45813  Biso   1.000  N
  N19      1.0000 0.71295  0.34375  0.13063  Biso   1.000  N
  N20      1.0000 0.75257  0.22751  0.44312  Biso   1.000  N
  N21      1.0000 0.79138  0.42224  0.11719  Biso   1.000  N
  N22      1.0000 0.83097  0.29307  0.42922  Biso   1.000  N
  N23      1.0000 0.87101  0.49103  0.08200  Biso   1.000  N
  N24      1.0000 0.90154  0.94595  0.20640  Biso   1.000  N
  N25      1.0000 0.94189  0.13789  0.86661  Biso   1.000  N
  N26      1.0000 0.98240  0.99745  0.19260  Biso   1.000  N
