data_image0
_cell_length_a       36.6528
_cell_length_b       2.22082
_cell_length_c       2.4392
_cell_angle_alpha    62.7304
_cell_angle_beta     88.2852
_cell_angle_gamma    89.5303

_symmetry_space_group_name_H-M    "P 1"
_symmetry_int_tables_number       1

loop_
  _symmetry_equiv_pos_as_xyz
  'x, y, z'

loop_
  _atom_site_label
  _atom_site_occupancy
  _atom_site_fract_x
  _atom_site_fract_y
  _atom_site_fract_z
  _atom_site_thermal_displace_type
  _atom_site_B_iso_or_equiv
  _atom_site_type_symbol
  N1       1.0000 0.01289  0.01704  0.12445  Biso   1.000  N
  N2       1.0000 0.04026  0.80685  0.44799  Biso   1.000  N
  N3       1.0000 0.06874  0.92675  0.12282  Biso   1.000  N
  N4       1.0000 0.09638  0.74743  0.44261  Biso   1.000  N
  N5       1.0000 0.12472  0.90768  0.11173  Biso   1.000  N
  N6       1.0000 0.15253  0.76301  0.42723  Biso   1.000  N
  N7       1.0000 0.18074  0.95797  0.09435  Biso   1.000  N
  N8       1.0000 0.20853  0.83739  0.40789  Biso   1.000  N
  N9       1.0000 0.23655  0.04776  0.07259  Biso   1.000  N
  N10      1.0000 0.26453  0.93924  0.38053  Biso   1.000  N
  N11      1.0000 0.29236  0.15178  0.03890  Biso   1.000  N
  N12      1.0000 0.32044  0.05121  0.34178  Biso   1.000  N
  N13      1.0000 0.34814  0.26766  0.99751  Biso   1.000  N
  N14      1.0000 0.37635  0.16638  0.29879  Biso   1.000  N
  N15      1.0000 0.40403  0.38407  0.95616  Biso   1.000  N
  N16      1.0000 0.43219  0.28045  0.25959  Biso   1.000  N
  N17      1.0000 0.45997  0.48913  0.91707  Biso   1.000  N
  N18      1.0000 0.48818  0.37792  0.22012  Biso   1.000  N
  N19      1.0000 0.51608  0.57559  0.87628  Biso   1.000  N
  N20      1.0000 0.54411  0.43993  0.17988  Biso   1.000  N
  N21      1.0000 0.57252  0.59988  0.83890  Biso   1.000  N
  N22      1.0000 0.60063  0.46393  0.15703  Biso   1.000  N
  N23      1.0000 0.62465  0.14601  0.98863  Biso   1.000  N
  N24      1.0000 0.65276  0.04155  0.30837  Biso   1.000  N
  N25      1.0000 0.67864  0.80608  0.11214  Biso   1.000  N
  N26      1.0000 0.70588  0.63761  0.43798  Biso   1.000  N
  N27      1.0000 0.73466  0.72835  0.10763  Biso   1.000  N
  N28      1.0000 0.76200  0.51916  0.42279  Biso   1.000  N
  N29      1.0000 0.79038  0.61840  0.09360  Biso   1.000  N
  N30      1.0000 0.81783  0.40675  0.41375  Biso   1.000  N
  N31      1.0000 0.84627  0.49310  0.09189  Biso   1.000  N
  N32      1.0000 0.87347  0.26994  0.41788  Biso   1.000  N
  N33      1.0000 0.90186  0.33308  0.10128  Biso   1.000  N
  N34      1.0000 0.92894  0.10437  0.42991  Biso   1.000  N
  N35      1.0000 0.95734  0.16133  0.11596  Biso   1.000  N
  N36      1.0000 0.98445  0.93523  0.44401  Biso   1.000  N
