data_image0
_cell_length_a       34.6984
_cell_length_b       2.15281
_cell_length_c       2.46372
_cell_angle_alpha    65.6266
_cell_angle_beta     87.7753
_cell_angle_gamma    89.9404

_symmetry_space_group_name_H-M    "P 1"
_symmetry_int_tables_number       1

loop_
  _symmetry_equiv_pos_as_xyz
  'x, y, z'

loop_
  _atom_site_label
  _atom_site_occupancy
  _atom_site_fract_x
  _atom_site_fract_y
  _atom_site_fract_z
  _atom_site_thermal_displace_type
  _atom_site_B_iso_or_equiv
  _atom_site_type_symbol
  N1       1.0000 0.00981  0.76332  0.95758  Biso   1.000  N
  N2       1.0000 0.04006  0.60334  0.27510  Biso   1.000  N
  N3       1.0000 0.06975  0.76730  0.94098  Biso   1.000  N
  N4       1.0000 0.09864  0.60449  0.25186  Biso   1.000  N
  N5       1.0000 0.12818  0.77954  0.90827  Biso   1.000  N
  N6       1.0000 0.15751  0.62601  0.20956  Biso   1.000  N
  N7       1.0000 0.18688  0.80458  0.86368  Biso   1.000  N
  N8       1.0000 0.21602  0.64912  0.16942  Biso   1.000  N
  N9       1.0000 0.24549  0.82222  0.82979  Biso   1.000  N
  N10      1.0000 0.27575  0.66744  0.14483  Biso   1.000  N
  N11      1.0000 0.29878  0.24161  0.99469  Biso   1.000  N
  N12      1.0000 0.32918  0.08929  0.30675  Biso   1.000  N
  N13      1.0000 0.35858  0.26200  0.96206  Biso   1.000  N
  N14      1.0000 0.38895  0.11392  0.27137  Biso   1.000  N
  N15      1.0000 0.41221  0.69118  0.11786  Biso   1.000  N
  N16      1.0000 0.44247  0.54226  0.42604  Biso   1.000  N
  N17      1.0000 0.47192  0.72280  0.07430  Biso   1.000  N
  N18      1.0000 0.50112  0.57505  0.37036  Biso   1.000  N
  N19      1.0000 0.53052  0.75655  0.01869  Biso   1.000  N
  N20      1.0000 0.56082  0.60371  0.32859  Biso   1.000  N
  N21      1.0000 0.58394  0.17377  0.18060  Biso   1.000  N
  N22      1.0000 0.61415  0.01872  0.49796  Biso   1.000  N
  N23      1.0000 0.64364  0.18956  0.15509  Biso   1.000  N
  N24      1.0000 0.67381  0.02848  0.47544  Biso   1.000  N
  N25      1.0000 0.69683  0.59754  0.32549  Biso   1.000  N
  N26      1.0000 0.72715  0.43502  0.64637  Biso   1.000  N
  N27      1.0000 0.75650  0.60638  0.30604  Biso   1.000  N
  N28      1.0000 0.78568  0.44804  0.61397  Biso   1.000  N
  N29      1.0000 0.81613  0.62409  0.25898  Biso   1.000  N
  N30      1.0000 0.83914  0.06711  0.38169  Biso   1.000  N
  N31      1.0000 0.86927  0.24344  0.02667  Biso   1.000  N
  N32      1.0000 0.89867  0.08337  0.33147  Biso   1.000  N
  N33      1.0000 0.92786  0.25439  0.99076  Biso   1.000  N
  N34      1.0000 0.95693  0.09372  0.30366  Biso   1.000  N
  N35      1.0000 0.98767  0.26313  0.95903  Biso   1.000  N
