data_image0
_cell_length_a       35.6547
_cell_length_b       2.15135
_cell_length_c       2.46901
_cell_angle_alpha    65.956
_cell_angle_beta     88.2577
_cell_angle_gamma    90.2313

_symmetry_space_group_name_H-M    "P 1"
_symmetry_int_tables_number       1

loop_
  _symmetry_equiv_pos_as_xyz
  'x, y, z'

loop_
  _atom_site_label
  _atom_site_occupancy
  _atom_site_fract_x
  _atom_site_fract_y
  _atom_site_fract_z
  _atom_site_thermal_displace_type
  _atom_site_B_iso_or_equiv
  _atom_site_type_symbol
  N1       1.0000 0.00861  0.57510  0.38098  Biso   1.000  N
  N2       1.0000 0.03800  0.41671  0.70508  Biso   1.000  N
  N3       1.0000 0.06674  0.58638  0.37236  Biso   1.000  N
  N4       1.0000 0.09511  0.42675  0.68509  Biso   1.000  N
  N5       1.0000 0.12365  0.60231  0.34304  Biso   1.000  N
  N6       1.0000 0.15221  0.44693  0.64820  Biso   1.000  N
  N7       1.0000 0.18168  0.62397  0.29408  Biso   1.000  N
  N8       1.0000 0.20403  0.06723  0.42252  Biso   1.000  N
  N9       1.0000 0.23373  0.23801  0.08066  Biso   1.000  N
  N10      1.0000 0.26203  0.07181  0.39554  Biso   1.000  N
  N11      1.0000 0.29076  0.23125  0.07013  Biso   1.000  N
  N12      1.0000 0.31896  0.05335  0.39566  Biso   1.000  N
  N13      1.0000 0.34772  0.21133  0.07083  Biso   1.000  N
  N14      1.0000 0.37593  0.04417  0.38665  Biso   1.000  N
  N15      1.0000 0.40572  0.21394  0.04377  Biso   1.000  N
  N16      1.0000 0.42790  0.65644  0.17210  Biso   1.000  N
  N17      1.0000 0.45758  0.83018  0.82154  Biso   1.000  N
  N18      1.0000 0.48587  0.66595  0.12976  Biso   1.000  N
  N19      1.0000 0.51449  0.83203  0.79226  Biso   1.000  N
  N20      1.0000 0.54284  0.66415  0.10518  Biso   1.000  N
  N21      1.0000 0.57161  0.83152  0.77347  Biso   1.000  N
  N22      1.0000 0.59988  0.66705  0.08993  Biso   1.000  N
  N23      1.0000 0.62849  0.83868  0.75740  Biso   1.000  N
  N24      1.0000 0.65783  0.67908  0.08142  Biso   1.000  N
  N25      1.0000 0.68026  0.24598  0.93764  Biso   1.000  N
  N26      1.0000 0.70953  0.09279  0.25490  Biso   1.000  N
  N27      1.0000 0.73833  0.27971  0.90975  Biso   1.000  N
  N28      1.0000 0.76653  0.14002  0.21069  Biso   1.000  N
  N29      1.0000 0.79515  0.32939  0.86155  Biso   1.000  N
  N30      1.0000 0.82469  0.17601  0.17772  Biso   1.000  N
  N31      1.0000 0.84686  0.74938  0.01887  Biso   1.000  N
  N32      1.0000 0.87674  0.58234  0.36219  Biso   1.000  N
  N33      1.0000 0.89896  0.15530  0.20392  Biso   1.000  N
  N34      1.0000 0.92830  0.99655  0.53072  Biso   1.000  N
  N35      1.0000 0.95704  0.16848  0.19403  Biso   1.000  N
  N36      1.0000 0.98626  0.00972  0.52036  Biso   1.000  N
