data_image0
_cell_length_a       34.8017
_cell_length_b       2.18886
_cell_length_c       2.4454
_cell_angle_alpha    63.4058
_cell_angle_beta     88.7249
_cell_angle_gamma    85.8578

_symmetry_space_group_name_H-M    "P 1"
_symmetry_int_tables_number       1

loop_
  _symmetry_equiv_pos_as_xyz
  'x, y, z'

loop_
  _atom_site_label
  _atom_site_occupancy
  _atom_site_fract_x
  _atom_site_fract_y
  _atom_site_fract_z
  _atom_site_thermal_displace_type
  _atom_site_B_iso_or_equiv
  _atom_site_type_symbol
  N1       1.0000 0.01417  0.88888  0.06061  Biso   1.000  N
  N2       1.0000 0.04352  0.64874  0.38978  Biso   1.000  N
  N3       1.0000 0.07324  0.73449  0.07591  Biso   1.000  N
  N4       1.0000 0.10271  0.50614  0.40414  Biso   1.000  N
  N5       1.0000 0.13237  0.60600  0.09014  Biso   1.000  N
  N6       1.0000 0.16201  0.39678  0.41821  Biso   1.000  N
  N7       1.0000 0.19156  0.52054  0.10171  Biso   1.000  N
  N8       1.0000 0.22139  0.33884  0.42625  Biso   1.000  N
  N9       1.0000 0.25076  0.48981  0.10662  Biso   1.000  N
  N10      1.0000 0.28060  0.33285  0.42630  Biso   1.000  N
  N11      1.0000 0.30996  0.49869  0.10312  Biso   1.000  N
  N12      1.0000 0.33975  0.35313  0.42016  Biso   1.000  N
  N13      1.0000 0.36901  0.52402  0.09701  Biso   1.000  N
  N14      1.0000 0.39879  0.37378  0.41852  Biso   1.000  N
  N15      1.0000 0.42827  0.53993  0.10220  Biso   1.000  N
  N16      1.0000 0.45800  0.38426  0.42746  Biso   1.000  N
  N17      1.0000 0.48730  0.54559  0.10977  Biso   1.000  N
  N18      1.0000 0.51719  0.37250  0.43424  Biso   1.000  N
  N19      1.0000 0.54740  0.51127  0.09996  Biso   1.000  N
  N20      1.0000 0.57060  0.91936  0.23200  Biso   1.000  N
  N21      1.0000 0.60087  0.04766  0.89832  Biso   1.000  N
  N22      1.0000 0.63061  0.83643  0.22600  Biso   1.000  N
  N23      1.0000 0.66016  0.93070  0.91343  Biso   1.000  N
  N24      1.0000 0.68958  0.70275  0.24752  Biso   1.000  N
  N25      1.0000 0.71943  0.78440  0.94033  Biso   1.000  N
  N26      1.0000 0.74875  0.54906  0.27411  Biso   1.000  N
  N27      1.0000 0.77854  0.62274  0.96551  Biso   1.000  N
  N28      1.0000 0.80768  0.37812  0.29919  Biso   1.000  N
  N29      1.0000 0.83751  0.44284  0.99119  Biso   1.000  N
  N30      1.0000 0.86667  0.19027  0.32451  Biso   1.000  N
  N31      1.0000 0.89629  0.25072  0.01589  Biso   1.000  N
  N32      1.0000 0.92557  0.99872  0.34842  Biso   1.000  N
  N33      1.0000 0.95523  0.06381  0.03952  Biso   1.000  N
  N34      1.0000 0.98452  0.81620  0.37196  Biso   1.000  N
