data_image0
_cell_length_a       34.4635
_cell_length_b       2.18444
_cell_length_c       2.45412
_cell_angle_alpha    63.4903
_cell_angle_beta     89.7582
_cell_angle_gamma    93.824

_symmetry_space_group_name_H-M    "P 1"
_symmetry_int_tables_number       1

loop_
  _symmetry_equiv_pos_as_xyz
  'x, y, z'

loop_
  _atom_site_label
  _atom_site_occupancy
  _atom_site_fract_x
  _atom_site_fract_y
  _atom_site_fract_z
  _atom_site_thermal_displace_type
  _atom_site_B_iso_or_equiv
  _atom_site_type_symbol
  N1       1.0000 0.00947  0.77048  0.20341  Biso   1.000  N
  N2       1.0000 0.04007  0.64384  0.52873  Biso   1.000  N
  N3       1.0000 0.06992  0.86142  0.18438  Biso   1.000  N
  N4       1.0000 0.10012  0.77555  0.47551  Biso   1.000  N
  N5       1.0000 0.12950  0.00233  0.12355  Biso   1.000  N
  N6       1.0000 0.16002  0.90898  0.41204  Biso   1.000  N
  N7       1.0000 0.18956  0.11758  0.06458  Biso   1.000  N
  N8       1.0000 0.21998  0.99587  0.35889  Biso   1.000  N
  N9       1.0000 0.24961  0.18601  0.01541  Biso   1.000  N
  N10      1.0000 0.27964  0.04937  0.31444  Biso   1.000  N
  N11      1.0000 0.30980  0.23741  0.97881  Biso   1.000  N
  N12      1.0000 0.34023  0.10057  0.30324  Biso   1.000  N
  N13      1.0000 0.36373  0.69331  0.16380  Biso   1.000  N
  N14      1.0000 0.39418  0.56254  0.48727  Biso   1.000  N
  N15      1.0000 0.42425  0.76276  0.15120  Biso   1.000  N
  N16      1.0000 0.45399  0.65253  0.45504  Biso   1.000  N
  N17      1.0000 0.48397  0.86690  0.11981  Biso   1.000  N
  N18      1.0000 0.51397  0.77682  0.42303  Biso   1.000  N
  N19      1.0000 0.54368  0.01225  0.08709  Biso   1.000  N
  N20      1.0000 0.57359  0.94103  0.38846  Biso   1.000  N
  N21      1.0000 0.60324  0.18674  0.04938  Biso   1.000  N
  N22      1.0000 0.63319  0.12744  0.34723  Biso   1.000  N
  N23      1.0000 0.66272  0.37966  0.00800  Biso   1.000  N
  N24      1.0000 0.69271  0.31198  0.30737  Biso   1.000  N
  N25      1.0000 0.72238  0.54710  0.96944  Biso   1.000  N
  N26      1.0000 0.75239  0.45749  0.27222  Biso   1.000  N
  N27      1.0000 0.78206  0.67369  0.93394  Biso   1.000  N
  N28      1.0000 0.81228  0.56506  0.23127  Biso   1.000  N
  N29      1.0000 0.84201  0.76406  0.88770  Biso   1.000  N
  N30      1.0000 0.87193  0.64180  0.18412  Biso   1.000  N
  N31      1.0000 0.90172  0.83921  0.83967  Biso   1.000  N
  N32      1.0000 0.93233  0.70926  0.16382  Biso   1.000  N
  N33      1.0000 0.95542  0.31168  0.00663  Biso   1.000  N
  N34      1.0000 0.98631  0.16725  0.36055  Biso   1.000  N
