data_image0
_cell_length_a       27.5817
_cell_length_b       2.14764
_cell_length_c       2.48105
_cell_angle_alpha    65.6019
_cell_angle_beta     94.0938
_cell_angle_gamma    89.7588

_symmetry_space_group_name_H-M    "P 1"
_symmetry_int_tables_number       1

loop_
  _symmetry_equiv_pos_as_xyz
  'x, y, z'

loop_
  _atom_site_label
  _atom_site_occupancy
  _atom_site_fract_x
  _atom_site_fract_y
  _atom_site_fract_z
  _atom_site_thermal_displace_type
  _atom_site_B_iso_or_equiv
  _atom_site_type_symbol
  N1       1.0000 0.01449  0.67335  0.15411  Biso   1.000  N
  N2       1.0000 0.05312  0.48720  0.52359  Biso   1.000  N
  N3       1.0000 0.08971  0.63947  0.23136  Biso   1.000  N
  N4       1.0000 0.12687  0.46164  0.58304  Biso   1.000  N
  N5       1.0000 0.16484  0.61720  0.27652  Biso   1.000  N
  N6       1.0000 0.19399  0.04289  0.43447  Biso   1.000  N
  N7       1.0000 0.23153  0.19658  0.12930  Biso   1.000  N
  N8       1.0000 0.26925  0.01532  0.48310  Biso   1.000  N
  N9       1.0000 0.30541  0.16334  0.19313  Biso   1.000  N
  N10      1.0000 0.34304  0.97725  0.55249  Biso   1.000  N
  N11      1.0000 0.38079  0.12257  0.25475  Biso   1.000  N
  N12      1.0000 0.41011  0.54877  0.40883  Biso   1.000  N
  N13      1.0000 0.44793  0.69323  0.10676  Biso   1.000  N
  N14      1.0000 0.48498  0.50951  0.46764  Biso   1.000  N
  N15      1.0000 0.52334  0.65700  0.16659  Biso   1.000  N
  N16      1.0000 0.55192  0.07534  0.33839  Biso   1.000  N
  N17      1.0000 0.59058  0.23605  0.01093  Biso   1.000  N
  N18      1.0000 0.61929  0.65465  0.18242  Biso   1.000  N
  N19      1.0000 0.65735  0.80772  0.87315  Biso   1.000  N
  N20      1.0000 0.69465  0.62899  0.22675  Biso   1.000  N
  N21      1.0000 0.73240  0.78303  0.91611  Biso   1.000  N
  N22      1.0000 0.76131  0.21114  0.06698  Biso   1.000  N
  N23      1.0000 0.79935  0.36377  0.76096  Biso   1.000  N
  N24      1.0000 0.83673  0.18975  0.11008  Biso   1.000  N
  N25      1.0000 0.87340  0.34487  0.81514  Biso   1.000  N
  N26      1.0000 0.91046  0.16414  0.17583  Biso   1.000  N
  N27      1.0000 0.94743  0.31161  0.89099  Biso   1.000  N
  N28      1.0000 0.98574  0.12363  0.26657  Biso   1.000  N
