data_image0
_cell_length_a       37.4932
_cell_length_b       2.1744
_cell_length_c       2.45142
_cell_angle_alpha    63.6121
_cell_angle_beta     89.6138
_cell_angle_gamma    89.2996

_symmetry_space_group_name_H-M    "P 1"
_symmetry_int_tables_number       1

loop_
  _symmetry_equiv_pos_as_xyz
  'x, y, z'

loop_
  _atom_site_label
  _atom_site_occupancy
  _atom_site_fract_x
  _atom_site_fract_y
  _atom_site_fract_z
  _atom_site_thermal_displace_type
  _atom_site_B_iso_or_equiv
  _atom_site_type_symbol
  N1       1.0000 0.00914  0.85767  0.03597  Biso   1.000  N
  N2       1.0000 0.03740  0.67903  0.36590  Biso   1.000  N
  N3       1.0000 0.06494  0.80983  0.04404  Biso   1.000  N
  N4       1.0000 0.09212  0.60021  0.36149  Biso   1.000  N
  N5       1.0000 0.11955  0.71431  0.04391  Biso   1.000  N
  N6       1.0000 0.14698  0.50805  0.36451  Biso   1.000  N
  N7       1.0000 0.17436  0.62686  0.04864  Biso   1.000  N
  N8       1.0000 0.20176  0.42535  0.37020  Biso   1.000  N
  N9       1.0000 0.22907  0.54912  0.05148  Biso   1.000  N
  N10      1.0000 0.25667  0.35939  0.36564  Biso   1.000  N
  N11      1.0000 0.28402  0.49687  0.04160  Biso   1.000  N
  N12      1.0000 0.31149  0.31864  0.35605  Biso   1.000  N
  N13      1.0000 0.33889  0.46558  0.03481  Biso   1.000  N
  N14      1.0000 0.36647  0.30182  0.35424  Biso   1.000  N
  N15      1.0000 0.39386  0.46525  0.03867  Biso   1.000  N
  N16      1.0000 0.42139  0.32277  0.35761  Biso   1.000  N
  N17      1.0000 0.44863  0.50867  0.03413  Biso   1.000  N
  N18      1.0000 0.47623  0.39245  0.34429  Biso   1.000  N
  N19      1.0000 0.50343  0.59693  0.01624  Biso   1.000  N
  N20      1.0000 0.53071  0.49739  0.32510  Biso   1.000  N
  N21      1.0000 0.55819  0.68948  0.00288  Biso   1.000  N
  N22      1.0000 0.58628  0.53198  0.33579  Biso   1.000  N
  N23      1.0000 0.60753  0.09292  0.21157  Biso   1.000  N
  N24      1.0000 0.63573  0.92897  0.54070  Biso   1.000  N
  N25      1.0000 0.66392  0.09509  0.20838  Biso   1.000  N
  N26      1.0000 0.68518  0.53211  0.32888  Biso   1.000  N
  N27      1.0000 0.71317  0.69911  0.98686  Biso   1.000  N
  N28      1.0000 0.74079  0.53416  0.30316  Biso   1.000  N
  N29      1.0000 0.76829  0.67403  0.98521  Biso   1.000  N
  N30      1.0000 0.79552  0.48853  0.31229  Biso   1.000  N
  N31      1.0000 0.82320  0.60756  0.00152  Biso   1.000  N
  N32      1.0000 0.85045  0.41280  0.32888  Biso   1.000  N
  N33      1.0000 0.87814  0.51795  0.01681  Biso   1.000  N
  N34      1.0000 0.90517  0.31144  0.34320  Biso   1.000  N
  N35      1.0000 0.93280  0.41171  0.03061  Biso   1.000  N
  N36      1.0000 0.96001  0.22038  0.35731  Biso   1.000  N
  N37      1.0000 0.98851  0.36810  0.02642  Biso   1.000  N
