data_image0
_cell_length_a       32.6076
_cell_length_b       2.15802
_cell_length_c       2.46805
_cell_angle_alpha    65.634
_cell_angle_beta     87.2192
_cell_angle_gamma    89.9845

_symmetry_space_group_name_H-M    "P 1"
_symmetry_int_tables_number       1

loop_
  _symmetry_equiv_pos_as_xyz
  'x, y, z'

loop_
  _atom_site_label
  _atom_site_occupancy
  _atom_site_fract_x
  _atom_site_fract_y
  _atom_site_fract_z
  _atom_site_thermal_displace_type
  _atom_site_B_iso_or_equiv
  _atom_site_type_symbol
  N1       1.0000 0.00985  0.78524  0.93234  Biso   1.000  N
  N2       1.0000 0.04208  0.62518  0.24572  Biso   1.000  N
  N3       1.0000 0.07381  0.79100  0.90593  Biso   1.000  N
  N4       1.0000 0.10527  0.62645  0.23318  Biso   1.000  N
  N5       1.0000 0.13026  0.19414  0.08938  Biso   1.000  N
  N6       1.0000 0.16201  0.03765  0.40476  Biso   1.000  N
  N7       1.0000 0.19370  0.21712  0.06332  Biso   1.000  N
  N8       1.0000 0.22461  0.06734  0.36217  Biso   1.000  N
  N9       1.0000 0.25597  0.25689  0.00863  Biso   1.000  N
  N10      1.0000 0.28702  0.10133  0.30701  Biso   1.000  N
  N11      1.0000 0.31837  0.27836  0.96285  Biso   1.000  N
  N12      1.0000 0.35052  0.12011  0.27543  Biso   1.000  N
  N13      1.0000 0.37506  0.69336  0.12097  Biso   1.000  N
  N14      1.0000 0.40728  0.53583  0.43181  Biso   1.000  N
  N15      1.0000 0.43850  0.71253  0.08366  Biso   1.000  N
  N16      1.0000 0.46971  0.55373  0.37700  Biso   1.000  N
  N17      1.0000 0.50088  0.73837  0.01814  Biso   1.000  N
  N18      1.0000 0.53209  0.58179  0.30844  Biso   1.000  N
  N19      1.0000 0.56340  0.75994  0.95749  Biso   1.000  N
  N20      1.0000 0.59559  0.60998  0.26218  Biso   1.000  N
  N21      1.0000 0.62034  0.18584  0.11033  Biso   1.000  N
  N22      1.0000 0.65219  0.03668  0.42129  Biso   1.000  N
  N23      1.0000 0.68385  0.22132  0.07465  Biso   1.000  N
  N24      1.0000 0.71437  0.06824  0.37890  Biso   1.000  N
  N25      1.0000 0.74626  0.24807  0.03795  Biso   1.000  N
  N26      1.0000 0.77774  0.08682  0.35618  Biso   1.000  N
  N27      1.0000 0.80259  0.65441  0.20705  Biso   1.000  N
  N28      1.0000 0.83436  0.48876  0.52905  Biso   1.000  N
  N29      1.0000 0.86601  0.65605  0.19224  Biso   1.000  N
  N30      1.0000 0.89648  0.49210  0.50389  Biso   1.000  N
  N31      1.0000 0.92968  0.67142  0.14572  Biso   1.000  N
  N32      1.0000 0.95311  0.10918  0.28254  Biso   1.000  N
  N33      1.0000 0.98706  0.30730  0.88479  Biso   1.000  N
