data_image0
_cell_length_a       31.7922
_cell_length_b       2.16648
_cell_length_c       2.44693
_cell_angle_alpha    63.701
_cell_angle_beta     86.2983
_cell_angle_gamma    83.2085

_symmetry_space_group_name_H-M    "P 1"
_symmetry_int_tables_number       1

loop_
  _symmetry_equiv_pos_as_xyz
  'x, y, z'

loop_
  _atom_site_label
  _atom_site_occupancy
  _atom_site_fract_x
  _atom_site_fract_y
  _atom_site_fract_z
  _atom_site_thermal_displace_type
  _atom_site_B_iso_or_equiv
  _atom_site_type_symbol
  N1       1.0000 0.01336  0.69177  0.01623  Biso   1.000  N
  N2       1.0000 0.04715  0.46907  0.34101  Biso   1.000  N
  N3       1.0000 0.07975  0.57678  0.00808  Biso   1.000  N
  N4       1.0000 0.11260  0.36698  0.30995  Biso   1.000  N
  N5       1.0000 0.14493  0.48521  0.96844  Biso   1.000  N
  N6       1.0000 0.17777  0.28803  0.26945  Biso   1.000  N
  N7       1.0000 0.21046  0.40569  0.93686  Biso   1.000  N
  N8       1.0000 0.24398  0.19013  0.26234  Biso   1.000  N
  N9       1.0000 0.26938  0.71524  0.12800  Biso   1.000  N
  N10      1.0000 0.30291  0.49952  0.45553  Biso   1.000  N
  N11      1.0000 0.33554  0.62249  0.12631  Biso   1.000  N
  N12      1.0000 0.36825  0.43097  0.43212  Biso   1.000  N
  N13      1.0000 0.40060  0.55188  0.09546  Biso   1.000  N
  N14      1.0000 0.43358  0.34238  0.39823  Biso   1.000  N
  N15      1.0000 0.46604  0.44259  0.06619  Biso   1.000  N
  N16      1.0000 0.49872  0.21516  0.37955  Biso   1.000  N
  N17      1.0000 0.53133  0.30256  0.05818  Biso   1.000  N
  N18      1.0000 0.56393  0.07322  0.37686  Biso   1.000  N
  N19      1.0000 0.59675  0.16182  0.05749  Biso   1.000  N
  N20      1.0000 0.62916  0.93292  0.37527  Biso   1.000  N
  N21      1.0000 0.66187  0.02246  0.04989  Biso   1.000  N
  N22      1.0000 0.69440  0.79086  0.36184  Biso   1.000  N
  N23      1.0000 0.72724  0.86839  0.03748  Biso   1.000  N
  N24      1.0000 0.75951  0.62546  0.35427  Biso   1.000  N
  N25      1.0000 0.79232  0.69181  0.03468  Biso   1.000  N
  N26      1.0000 0.82463  0.44905  0.35632  Biso   1.000  N
  N27      1.0000 0.85753  0.51590  0.03957  Biso   1.000  N
  N28      1.0000 0.88986  0.27527  0.36039  Biso   1.000  N
  N29      1.0000 0.92256  0.35176  0.03990  Biso   1.000  N
  N30      1.0000 0.95503  0.12495  0.35847  Biso   1.000  N
  N31      1.0000 0.98888  0.23219  0.02062  Biso   1.000  N
