data_image0
_cell_length_a       35.2954
_cell_length_b       2.17669
_cell_length_c       2.45322
_cell_angle_alpha    63.6406
_cell_angle_beta     89.6576
_cell_angle_gamma    87.5881

_symmetry_space_group_name_H-M    "P 1"
_symmetry_int_tables_number       1

loop_
  _symmetry_equiv_pos_as_xyz
  'x, y, z'

loop_
  _atom_site_label
  _atom_site_occupancy
  _atom_site_fract_x
  _atom_site_fract_y
  _atom_site_fract_z
  _atom_site_thermal_displace_type
  _atom_site_B_iso_or_equiv
  _atom_site_type_symbol
  N1       1.0000 0.01210  0.79704  0.98815  Biso   1.000  N
  N2       1.0000 0.04251  0.61264  0.31764  Biso   1.000  N
  N3       1.0000 0.07135  0.75912  0.99202  Biso   1.000  N
  N4       1.0000 0.10072  0.59791  0.29694  Biso   1.000  N
  N5       1.0000 0.12974  0.74505  0.97555  Biso   1.000  N
  N6       1.0000 0.15977  0.55804  0.31114  Biso   1.000  N
  N7       1.0000 0.18245  0.10520  0.18533  Biso   1.000  N
  N8       1.0000 0.21241  0.91831  0.52621  Biso   1.000  N
  N9       1.0000 0.24151  0.06437  0.20671  Biso   1.000  N
  N10      1.0000 0.27066  0.89996  0.52434  Biso   1.000  N
  N11      1.0000 0.29976  0.04752  0.20633  Biso   1.000  N
  N12      1.0000 0.32920  0.86942  0.52992  Biso   1.000  N
  N13      1.0000 0.35804  0.00955  0.21693  Biso   1.000  N
  N14      1.0000 0.38742  0.82411  0.54275  Biso   1.000  N
  N15      1.0000 0.41720  0.96919  0.21205  Biso   1.000  N
  N16      1.0000 0.44001  0.38630  0.34571  Biso   1.000  N
  N17      1.0000 0.46987  0.52539  0.02176  Biso   1.000  N
  N18      1.0000 0.49904  0.33480  0.35465  Biso   1.000  N
  N19      1.0000 0.52828  0.45299  0.06059  Biso   1.000  N
  N20      1.0000 0.55737  0.26098  0.39521  Biso   1.000  N
  N21      1.0000 0.58741  0.40038  0.07446  Biso   1.000  N
  N22      1.0000 0.61004  0.81750  0.20849  Biso   1.000  N
  N23      1.0000 0.64010  0.95772  0.88324  Biso   1.000  N
  N24      1.0000 0.66911  0.76318  0.21688  Biso   1.000  N
  N25      1.0000 0.69846  0.87444  0.91655  Biso   1.000  N
  N26      1.0000 0.72726  0.66842  0.25345  Biso   1.000  N
  N27      1.0000 0.75688  0.76975  0.95156  Biso   1.000  N
  N28      1.0000 0.78563  0.55708  0.28356  Biso   1.000  N
  N29      1.0000 0.81495  0.65102  0.97398  Biso   1.000  N
  N30      1.0000 0.84387  0.43148  0.29887  Biso   1.000  N
  N31      1.0000 0.87310  0.52029  0.98685  Biso   1.000  N
  N32      1.0000 0.90223  0.29397  0.31019  Biso   1.000  N
  N33      1.0000 0.93100  0.38509  0.99526  Biso   1.000  N
  N34      1.0000 0.96030  0.17349  0.32006  Biso   1.000  N
  N35      1.0000 0.99025  0.31080  0.99166  Biso   1.000  N
