data_image0
_cell_length_a       33.4418
_cell_length_b       2.16702
_cell_length_c       2.45474
_cell_angle_alpha    63.7952
_cell_angle_beta     88.6732
_cell_angle_gamma    91.2414

_symmetry_space_group_name_H-M    "P 1"
_symmetry_int_tables_number       1

loop_
  _symmetry_equiv_pos_as_xyz
  'x, y, z'

loop_
  _atom_site_label
  _atom_site_occupancy
  _atom_site_fract_x
  _atom_site_fract_y
  _atom_site_fract_z
  _atom_site_thermal_displace_type
  _atom_site_B_iso_or_equiv
  _atom_site_type_symbol
  N1       1.0000 0.01490  0.75062  0.90945  Biso   1.000  N
  N2       1.0000 0.04662  0.59204  0.22535  Biso   1.000  N
  N3       1.0000 0.07767  0.76091  0.88678  Biso   1.000  N
  N4       1.0000 0.10892  0.59797  0.20692  Biso   1.000  N
  N5       1.0000 0.13328  0.16897  0.07013  Biso   1.000  N
  N6       1.0000 0.16449  0.00678  0.39276  Biso   1.000  N
  N7       1.0000 0.19562  0.18010  0.05661  Biso   1.000  N
  N8       1.0000 0.22701  0.02384  0.37796  Biso   1.000  N
  N9       1.0000 0.25114  0.60085  0.23607  Biso   1.000  N
  N10      1.0000 0.28268  0.45502  0.55333  Biso   1.000  N
  N11      1.0000 0.31350  0.64827  0.21431  Biso   1.000  N
  N12      1.0000 0.34424  0.53534  0.51248  Biso   1.000  N
  N13      1.0000 0.37494  0.74064  0.17338  Biso   1.000  N
  N14      1.0000 0.40590  0.62892  0.47162  Biso   1.000  N
  N15      1.0000 0.43656  0.83518  0.13474  Biso   1.000  N
  N16      1.0000 0.46732  0.71635  0.43851  Biso   1.000  N
  N17      1.0000 0.49810  0.91466  0.10497  Biso   1.000  N
  N18      1.0000 0.52890  0.79365  0.40818  Biso   1.000  N
  N19      1.0000 0.55974  0.98902  0.07327  Biso   1.000  N
  N20      1.0000 0.59038  0.86766  0.37621  Biso   1.000  N
  N21      1.0000 0.62133  0.06091  0.04205  Biso   1.000  N
  N22      1.0000 0.65192  0.93673  0.34862  Biso   1.000  N
  N23      1.0000 0.68289  0.13208  0.01861  Biso   1.000  N
  N24      1.0000 0.71338  0.00678  0.32744  Biso   1.000  N
  N25      1.0000 0.74456  0.20232  0.99951  Biso   1.000  N
  N26      1.0000 0.77496  0.06982  0.30873  Biso   1.000  N
  N27      1.0000 0.80609  0.25498  0.97883  Biso   1.000  N
  N28      1.0000 0.83649  0.10894  0.28776  Biso   1.000  N
  N29      1.0000 0.86775  0.27201  0.95887  Biso   1.000  N
  N30      1.0000 0.89817  0.10500  0.26880  Biso   1.000  N
  N31      1.0000 0.92918  0.23925  0.94380  Biso   1.000  N
  N32      1.0000 0.95959  0.07379  0.25661  Biso   1.000  N
  N33      1.0000 0.99178  0.24309  0.91235  Biso   1.000  N
