data_image0
_cell_length_a       34.7409
_cell_length_b       2.15391
_cell_length_c       2.46378
_cell_angle_alpha    65.6046
_cell_angle_beta     93.9585
_cell_angle_gamma    90.0361

_symmetry_space_group_name_H-M    "P 1"
_symmetry_int_tables_number       1

loop_
  _symmetry_equiv_pos_as_xyz
  'x, y, z'

loop_
  _atom_site_label
  _atom_site_occupancy
  _atom_site_fract_x
  _atom_site_fract_y
  _atom_site_fract_z
  _atom_site_thermal_displace_type
  _atom_site_B_iso_or_equiv
  _atom_site_type_symbol
  N1       1.0000 0.01054  0.73982  0.02042  Biso   1.000  N
  N2       1.0000 0.04158  0.55815  0.38664  Biso   1.000  N
  N3       1.0000 0.07056  0.71004  0.08855  Biso   1.000  N
  N4       1.0000 0.10014  0.53097  0.44322  Biso   1.000  N
  N5       1.0000 0.12920  0.68908  0.14217  Biso   1.000  N
  N6       1.0000 0.15892  0.51439  0.49125  Biso   1.000  N
  N7       1.0000 0.18904  0.66825  0.18224  Biso   1.000  N
  N8       1.0000 0.21213  0.09051  0.34002  Biso   1.000  N
  N9       1.0000 0.24240  0.23722  0.04013  Biso   1.000  N
  N10      1.0000 0.27201  0.05728  0.39652  Biso   1.000  N
  N11      1.0000 0.30226  0.19902  0.09961  Biso   1.000  N
  N12      1.0000 0.32556  0.61704  0.26163  Biso   1.000  N
  N13      1.0000 0.35575  0.76032  0.96603  Biso   1.000  N
  N14      1.0000 0.38522  0.57842  0.32907  Biso   1.000  N
  N15      1.0000 0.41452  0.72577  0.04671  Biso   1.000  N
  N16      1.0000 0.44375  0.54246  0.41235  Biso   1.000  N
  N17      1.0000 0.47421  0.68855  0.11797  Biso   1.000  N
  N18      1.0000 0.49714  0.11324  0.27698  Biso   1.000  N
  N19      1.0000 0.52755  0.25996  0.98051  Biso   1.000  N
  N20      1.0000 0.55680  0.07613  0.34186  Biso   1.000  N
  N21      1.0000 0.58608  0.22532  0.05354  Biso   1.000  N
  N22      1.0000 0.61534  0.04136  0.41459  Biso   1.000  N
  N23      1.0000 0.64570  0.18874  0.11777  Biso   1.000  N
  N24      1.0000 0.66871  0.61583  0.27567  Biso   1.000  N
  N25      1.0000 0.69894  0.76334  0.97622  Biso   1.000  N
  N26      1.0000 0.72844  0.57948  0.33534  Biso   1.000  N
  N27      1.0000 0.75750  0.72688  0.04413  Biso   1.000  N
  N28      1.0000 0.78706  0.54352  0.40146  Biso   1.000  N
  N29      1.0000 0.81717  0.69353  0.09774  Biso   1.000  N
  N30      1.0000 0.84024  0.12409  0.24671  Biso   1.000  N
  N31      1.0000 0.87009  0.27761  0.93630  Biso   1.000  N
  N32      1.0000 0.89998  0.09895  0.28354  Biso   1.000  N
  N33      1.0000 0.92859  0.25617  0.97859  Biso   1.000  N
  N34      1.0000 0.95839  0.08243  0.32689  Biso   1.000  N
  N35      1.0000 0.98848  0.23861  0.02261  Biso   1.000  N
