data_image0
_cell_length_a       35.3802
_cell_length_b       2.20334
_cell_length_c       2.43752
_cell_angle_alpha    63.1328
_cell_angle_beta     85.6629
_cell_angle_gamma    80.5685

_symmetry_space_group_name_H-M    "P 1"
_symmetry_int_tables_number       1

loop_
  _symmetry_equiv_pos_as_xyz
  'x, y, z'

loop_
  _atom_site_label
  _atom_site_occupancy
  _atom_site_fract_x
  _atom_site_fract_y
  _atom_site_fract_z
  _atom_site_thermal_displace_type
  _atom_site_B_iso_or_equiv
  _atom_site_type_symbol
  N1       1.0000 0.01459  0.94749  0.03288  Biso   1.000  N
  N2       1.0000 0.04416  0.72946  0.35105  Biso   1.000  N
  N3       1.0000 0.07351  0.83441  0.02503  Biso   1.000  N
  N4       1.0000 0.10307  0.61724  0.34350  Biso   1.000  N
  N5       1.0000 0.13244  0.72190  0.01757  Biso   1.000  N
  N6       1.0000 0.16199  0.50108  0.33655  Biso   1.000  N
  N7       1.0000 0.19140  0.59782  0.01141  Biso   1.000  N
  N8       1.0000 0.22091  0.36464  0.33188  Biso   1.000  N
  N9       1.0000 0.25040  0.44516  0.00841  Biso   1.000  N
  N10      1.0000 0.27984  0.19428  0.33060  Biso   1.000  N
  N11      1.0000 0.30937  0.25488  0.00923  Biso   1.000  N
  N12      1.0000 0.33868  0.98606  0.33337  Biso   1.000  N
  N13      1.0000 0.36827  0.02674  0.01496  Biso   1.000  N
  N14      1.0000 0.39741  0.74283  0.34153  Biso   1.000  N
  N15      1.0000 0.42701  0.76630  0.02618  Biso   1.000  N
  N16      1.0000 0.45601  0.47139  0.35455  Biso   1.000  N
  N17      1.0000 0.48559  0.48348  0.04109  Biso   1.000  N
  N18      1.0000 0.51453  0.18331  0.36989  Biso   1.000  N
  N19      1.0000 0.54408  0.19414  0.05602  Biso   1.000  N
  N20      1.0000 0.57310  0.89662  0.38325  Biso   1.000  N
  N21      1.0000 0.60262  0.91838  0.06640  Biso   1.000  N
  N22      1.0000 0.63182  0.63275  0.39101  Biso   1.000  N
  N23      1.0000 0.66132  0.67599  0.07046  Biso   1.000  N
  N24      1.0000 0.69072  0.41201  0.39291  Biso   1.000  N
  N25      1.0000 0.72020  0.48354  0.06950  Biso   1.000  N
  N26      1.0000 0.74970  0.24683  0.39027  Biso   1.000  N
  N27      1.0000 0.77911  0.34535  0.06517  Biso   1.000  N
  N28      1.0000 0.80864  0.13138  0.38421  Biso   1.000  N
  N29      1.0000 0.83796  0.24602  0.05807  Biso   1.000  N
  N30      1.0000 0.86750  0.04117  0.37597  Biso   1.000  N
  N31      1.0000 0.89679  0.15741  0.04956  Biso   1.000  N
  N32      1.0000 0.92635  0.94876  0.36739  Biso   1.000  N
  N33      1.0000 0.95567  0.05842  0.04110  Biso   1.000  N
  N34      1.0000 0.98525  0.84276  0.35903  Biso   1.000  N
