data_image0
_cell_length_a       36.7406
_cell_length_b       2.19469
_cell_length_c       2.44295
_cell_angle_alpha    63.3541
_cell_angle_beta     89.6807
_cell_angle_gamma    87.9336

_symmetry_space_group_name_H-M    "P 1"
_symmetry_int_tables_number       1

loop_
  _symmetry_equiv_pos_as_xyz
  'x, y, z'

loop_
  _atom_site_label
  _atom_site_occupancy
  _atom_site_fract_x
  _atom_site_fract_y
  _atom_site_fract_z
  _atom_site_thermal_displace_type
  _atom_site_B_iso_or_equiv
  _atom_site_type_symbol
  N1       1.0000 0.01300  0.06896  0.03568  Biso   1.000  N
  N2       1.0000 0.04079  0.85512  0.36362  Biso   1.000  N
  N3       1.0000 0.06882  0.97420  0.04797  Biso   1.000  N
  N4       1.0000 0.09683  0.78941  0.37616  Biso   1.000  N
  N5       1.0000 0.12481  0.94460  0.05989  Biso   1.000  N
  N6       1.0000 0.15283  0.79526  0.38568  Biso   1.000  N
  N7       1.0000 0.18058  0.98239  0.06621  Biso   1.000  N
  N8       1.0000 0.20863  0.86343  0.38622  Biso   1.000  N
  N9       1.0000 0.23617  0.07074  0.06124  Biso   1.000  N
  N10      1.0000 0.26417  0.97200  0.37562  Biso   1.000  N
  N11      1.0000 0.29162  0.18481  0.04928  Biso   1.000  N
  N12      1.0000 0.31968  0.08529  0.36525  Biso   1.000  N
  N13      1.0000 0.34714  0.29770  0.04256  Biso   1.000  N
  N14      1.0000 0.37511  0.19127  0.36305  Biso   1.000  N
  N15      1.0000 0.40276  0.39399  0.04382  Biso   1.000  N
  N16      1.0000 0.43080  0.26889  0.36675  Biso   1.000  N
  N17      1.0000 0.45855  0.45498  0.04595  Biso   1.000  N
  N18      1.0000 0.48658  0.30884  0.36815  Biso   1.000  N
  N19      1.0000 0.51463  0.46740  0.04862  Biso   1.000  N
  N20      1.0000 0.54260  0.29009  0.37407  Biso   1.000  N
  N21      1.0000 0.57070  0.42069  0.05915  Biso   1.000  N
  N22      1.0000 0.59853  0.21917  0.39170  Biso   1.000  N
  N23      1.0000 0.62679  0.32479  0.08411  Biso   1.000  N
  N24      1.0000 0.65456  0.10945  0.41992  Biso   1.000  N
  N25      1.0000 0.68260  0.20623  0.11174  Biso   1.000  N
  N26      1.0000 0.71055  0.99934  0.44351  Biso   1.000  N
  N27      1.0000 0.73934  0.13859  0.11306  Biso   1.000  N
  N28      1.0000 0.76115  0.55693  0.24937  Biso   1.000  N
  N29      1.0000 0.79001  0.69019  0.92051  Biso   1.000  N
  N30      1.0000 0.81781  0.46983  0.25456  Biso   1.000  N
  N31      1.0000 0.84585  0.53641  0.95105  Biso   1.000  N
  N32      1.0000 0.87333  0.29797  0.29088  Biso   1.000  N
  N33      1.0000 0.90159  0.36431  0.98902  Biso   1.000  N
  N34      1.0000 0.92907  0.12819  0.32696  Biso   1.000  N
  N35      1.0000 0.95719  0.20368  0.01921  Biso   1.000  N
  N36      1.0000 0.98484  0.97486  0.34944  Biso   1.000  N
