data_image0
_cell_length_a       32.2917
_cell_length_b       2.16601
_cell_length_c       2.4597
_cell_angle_alpha    63.8111
_cell_angle_beta     88.56
_cell_angle_gamma    92.8451

_symmetry_space_group_name_H-M    "P 1"
_symmetry_int_tables_number       1

loop_
  _symmetry_equiv_pos_as_xyz
  'x, y, z'

loop_
  _atom_site_label
  _atom_site_occupancy
  _atom_site_fract_x
  _atom_site_fract_y
  _atom_site_fract_z
  _atom_site_thermal_displace_type
  _atom_site_B_iso_or_equiv
  _atom_site_type_symbol
  N1       1.0000 0.01315  0.72042  0.07939  Biso   1.000  N
  N2       1.0000 0.04569  0.58390  0.39222  Biso   1.000  N
  N3       1.0000 0.07795  0.77541  0.04833  Biso   1.000  N
  N4       1.0000 0.11033  0.63902  0.36132  Biso   1.000  N
  N5       1.0000 0.13563  0.23087  0.21251  Biso   1.000  N
  N6       1.0000 0.16813  0.10095  0.52210  Biso   1.000  N
  N7       1.0000 0.20012  0.30561  0.17687  Biso   1.000  N
  N8       1.0000 0.23229  0.20501  0.46384  Biso   1.000  N
  N9       1.0000 0.26379  0.42103  0.11484  Biso   1.000  N
  N10      1.0000 0.29615  0.32533  0.40260  Biso   1.000  N
  N11      1.0000 0.32773  0.54032  0.05460  Biso   1.000  N
  N12      1.0000 0.35998  0.44645  0.34091  Biso   1.000  N
  N13      1.0000 0.39171  0.66014  0.99291  Biso   1.000  N
  N14      1.0000 0.42361  0.55950  0.28420  Biso   1.000  N
  N15      1.0000 0.45572  0.76281  0.94278  Biso   1.000  N
  N16      1.0000 0.48827  0.63380  0.25669  Biso   1.000  N
  N17      1.0000 0.51327  0.22731  0.11009  Biso   1.000  N
  N18      1.0000 0.54592  0.10448  0.42043  Biso   1.000  N
  N19      1.0000 0.57783  0.32063  0.07486  Biso   1.000  N
  N20      1.0000 0.60985  0.24833  0.35900  Biso   1.000  N
  N21      1.0000 0.64140  0.48307  0.00534  Biso   1.000  N
  N22      1.0000 0.67345  0.41080  0.28825  Biso   1.000  N
  N23      1.0000 0.70534  0.62827  0.94146  Biso   1.000  N
  N24      1.0000 0.73803  0.50618  0.24925  Biso   1.000  N
  N25      1.0000 0.76299  0.10112  0.10029  Biso   1.000  N
  N26      1.0000 0.79575  0.97200  0.40686  Biso   1.000  N
  N27      1.0000 0.82763  0.16439  0.05904  Biso   1.000  N
  N28      1.0000 0.85981  0.03091  0.34156  Biso   1.000  N
  N29      1.0000 0.89135  0.21868  0.98537  Biso   1.000  N
  N30      1.0000 0.92357  0.07888  0.26688  Biso   1.000  N
  N31      1.0000 0.95540  0.26492  0.91911  Biso   1.000  N
  N32      1.0000 0.98818  0.12946  0.22611  Biso   1.000  N
