data_image0
_cell_length_a       35.6065
_cell_length_b       2.18259
_cell_length_c       2.45028
_cell_angle_alpha    63.3903
_cell_angle_beta     90.9993
_cell_angle_gamma    93.0701

_symmetry_space_group_name_H-M    "P 1"
_symmetry_int_tables_number       1

loop_
  _symmetry_equiv_pos_as_xyz
  'x, y, z'

loop_
  _atom_site_label
  _atom_site_occupancy
  _atom_site_fract_x
  _atom_site_fract_y
  _atom_site_fract_z
  _atom_site_thermal_displace_type
  _atom_site_B_iso_or_equiv
  _atom_site_type_symbol
  N1       1.0000 0.01175  0.87506  0.06623  Biso   1.000  N
  N2       1.0000 0.04179  0.75166  0.39247  Biso   1.000  N
  N3       1.0000 0.07038  0.97186  0.05822  Biso   1.000  N
  N4       1.0000 0.09942  0.92035  0.36195  Biso   1.000  N
  N5       1.0000 0.12768  0.15940  0.02679  Biso   1.000  N
  N6       1.0000 0.15711  0.11214  0.32722  Biso   1.000  N
  N7       1.0000 0.18514  0.34861  0.98750  Biso   1.000  N
  N8       1.0000 0.21462  0.30310  0.28423  Biso   1.000  N
  N9       1.0000 0.24272  0.54007  0.94100  Biso   1.000  N
  N10      1.0000 0.27194  0.47992  0.24028  Biso   1.000  N
  N11      1.0000 0.30066  0.69376  0.90763  Biso   1.000  N
  N12      1.0000 0.33037  0.56526  0.23867  Biso   1.000  N
  N13      1.0000 0.35295  0.15579  0.10386  Biso   1.000  N
  N14      1.0000 0.38265  0.02338  0.43477  Biso   1.000  N
  N15      1.0000 0.41150  0.23006  0.10473  Biso   1.000  N
  N16      1.0000 0.44062  0.13251  0.41077  Biso   1.000  N
  N17      1.0000 0.46916  0.34968  0.07418  Biso   1.000  N
  N18      1.0000 0.49840  0.24612  0.38178  Biso   1.000  N
  N19      1.0000 0.52716  0.45003  0.05279  Biso   1.000  N
  N20      1.0000 0.55621  0.32370  0.36903  Biso   1.000  N
  N21      1.0000 0.58508  0.50821  0.04639  Biso   1.000  N
  N22      1.0000 0.61406  0.36234  0.36492  Biso   1.000  N
  N23      1.0000 0.64305  0.52560  0.04292  Biso   1.000  N
  N24      1.0000 0.67180  0.36022  0.36245  Biso   1.000  N
  N25      1.0000 0.70082  0.50212  0.04215  Biso   1.000  N
  N26      1.0000 0.72941  0.32292  0.36307  Biso   1.000  N
  N27      1.0000 0.75858  0.44698  0.04784  Biso   1.000  N
  N28      1.0000 0.78691  0.25704  0.37403  Biso   1.000  N
  N29      1.0000 0.81602  0.37760  0.06009  Biso   1.000  N
  N30      1.0000 0.84451  0.19622  0.38511  Biso   1.000  N
  N31      1.0000 0.87374  0.33118  0.07100  Biso   1.000  N
  N32      1.0000 0.90229  0.16092  0.39693  Biso   1.000  N
  N33      1.0000 0.93133  0.31164  0.08013  Biso   1.000  N
  N34      1.0000 0.96009  0.16358  0.40427  Biso   1.000  N
  N35      1.0000 0.99008  0.35344  0.06960  Biso   1.000  N
