data_image0
_cell_length_a       29.771
_cell_length_b       2.14723
_cell_length_c       2.46954
_cell_angle_alpha    65.6817
_cell_angle_beta     88.3877
_cell_angle_gamma    88.2015

_symmetry_space_group_name_H-M    "P 1"
_symmetry_int_tables_number       1

loop_
  _symmetry_equiv_pos_as_xyz
  'x, y, z'

loop_
  _atom_site_label
  _atom_site_occupancy
  _atom_site_fract_x
  _atom_site_fract_y
  _atom_site_fract_z
  _atom_site_thermal_displace_type
  _atom_site_B_iso_or_equiv
  _atom_site_type_symbol
  N1       1.0000 0.01445  0.69389  0.13359  Biso   1.000  N
  N2       1.0000 0.04965  0.52080  0.46042  Biso   1.000  N
  N3       1.0000 0.08397  0.67353  0.12765  Biso   1.000  N
  N4       1.0000 0.11920  0.49601  0.45536  Biso   1.000  N
  N5       1.0000 0.14609  0.05197  0.30970  Biso   1.000  N
  N6       1.0000 0.18154  0.87217  0.63795  Biso   1.000  N
  N7       1.0000 0.21568  0.02523  0.30613  Biso   1.000  N
  N8       1.0000 0.24980  0.84982  0.62199  Biso   1.000  N
  N9       1.0000 0.28513  0.00904  0.27485  Biso   1.000  N
  N10      1.0000 0.31199  0.43680  0.40739  Biso   1.000  N
  N11      1.0000 0.34723  0.59030  0.06684  Biso   1.000  N
  N12      1.0000 0.38153  0.40136  0.38463  Biso   1.000  N
  N13      1.0000 0.41550  0.53739  0.05990  Biso   1.000  N
  N14      1.0000 0.44975  0.33457  0.38807  Biso   1.000  N
  N15      1.0000 0.48382  0.46836  0.06433  Biso   1.000  N
  N16      1.0000 0.51800  0.27822  0.38368  Biso   1.000  N
  N17      1.0000 0.55348  0.42840  0.04673  Biso   1.000  N
  N18      1.0000 0.58029  0.85525  0.17997  Biso   1.000  N
  N19      1.0000 0.61562  0.01107  0.83486  Biso   1.000  N
  N20      1.0000 0.64984  0.83331  0.14836  Biso   1.000  N
  N21      1.0000 0.68402  0.98458  0.81469  Biso   1.000  N
  N22      1.0000 0.71808  0.80103  0.13574  Biso   1.000  N
  N23      1.0000 0.75227  0.95061  0.80678  Biso   1.000  N
  N24      1.0000 0.78766  0.76968  0.13601  Biso   1.000  N
  N25      1.0000 0.81432  0.32202  0.99700  Biso   1.000  N
  N26      1.0000 0.84965  0.14628  0.32068  Biso   1.000  N
  N27      1.0000 0.88394  0.31011  0.98188  Biso   1.000  N
  N28      1.0000 0.91781  0.14635  0.29099  Biso   1.000  N
  N29      1.0000 0.95225  0.31153  0.95133  Biso   1.000  N
  N30      1.0000 0.98745  0.14032  0.27247  Biso   1.000  N
