data_image0
_cell_length_a       37.5844
_cell_length_b       2.14644
_cell_length_c       2.47111
_cell_angle_alpha    65.6581
_cell_angle_beta     88.6593
_cell_angle_gamma    88.5633

_symmetry_space_group_name_H-M    "P 1"
_symmetry_int_tables_number       1

loop_
  _symmetry_equiv_pos_as_xyz
  'x, y, z'

loop_
  _atom_site_label
  _atom_site_occupancy
  _atom_site_fract_x
  _atom_site_fract_y
  _atom_site_fract_z
  _atom_site_thermal_displace_type
  _atom_site_B_iso_or_equiv
  _atom_site_type_symbol
  N1       1.0000 0.00973  0.61353  0.32464  Biso   1.000  N
  N2       1.0000 0.03771  0.43529  0.65578  Biso   1.000  N
  N3       1.0000 0.06486  0.58656  0.32970  Biso   1.000  N
  N4       1.0000 0.09184  0.40749  0.65063  Biso   1.000  N
  N5       1.0000 0.11888  0.56271  0.31713  Biso   1.000  N
  N6       1.0000 0.14599  0.38855  0.63117  Biso   1.000  N
  N7       1.0000 0.17397  0.54712  0.28667  Biso   1.000  N
  N8       1.0000 0.19515  0.97656  0.41938  Biso   1.000  N
  N9       1.0000 0.22324  0.13026  0.08227  Biso   1.000  N
  N10      1.0000 0.25024  0.94523  0.40259  Biso   1.000  N
  N11      1.0000 0.27732  0.08380  0.08042  Biso   1.000  N
  N12      1.0000 0.30429  0.88727  0.41064  Biso   1.000  N
  N13      1.0000 0.33135  0.02573  0.09035  Biso   1.000  N
  N14      1.0000 0.35847  0.84122  0.41144  Biso   1.000  N
  N15      1.0000 0.38639  0.99394  0.07612  Biso   1.000  N
  N16      1.0000 0.40784  0.42255  0.21026  Biso   1.000  N
  N17      1.0000 0.43570  0.58033  0.86572  Biso   1.000  N
  N18      1.0000 0.46283  0.41132  0.18202  Biso   1.000  N
  N19      1.0000 0.49074  0.56991  0.83489  Biso   1.000  N
  N20      1.0000 0.51176  0.00157  0.96059  Biso   1.000  N
  N21      1.0000 0.53998  0.15304  0.62240  Biso   1.000  N
  N22      1.0000 0.56816  0.98242  0.94807  Biso   1.000  N
  N23      1.0000 0.58920  0.53435  0.81555  Biso   1.000  N
  N24      1.0000 0.61698  0.35482  0.15145  Biso   1.000  N
  N25      1.0000 0.64418  0.50451  0.82309  Biso   1.000  N
  N26      1.0000 0.67202  0.32608  0.15596  Biso   1.000  N
  N27      1.0000 0.69328  0.87906  0.02062  Biso   1.000  N
  N28      1.0000 0.72114  0.70571  0.34670  Biso   1.000  N
  N29      1.0000 0.74830  0.86777  0.01360  Biso   1.000  N
  N30      1.0000 0.77523  0.70155  0.32422  Biso   1.000  N
  N31      1.0000 0.80228  0.86596  0.98635  Biso   1.000  N
  N32      1.0000 0.83029  0.69862  0.30578  Biso   1.000  N
  N33      1.0000 0.85160  0.25570  0.16631  Biso   1.000  N
  N34      1.0000 0.87959  0.08733  0.48657  Biso   1.000  N
  N35      1.0000 0.90665  0.24899  0.15088  Biso   1.000  N
  N36      1.0000 0.93355  0.07754  0.46463  Biso   1.000  N
  N37      1.0000 0.96068  0.23609  0.13386  Biso   1.000  N
  N38      1.0000 0.98858  0.05949  0.46156  Biso   1.000  N
