data_image0
_cell_length_a       32.2402
_cell_length_b       2.17065
_cell_length_c       2.45967
_cell_angle_alpha    63.7896
_cell_angle_beta     87.8947
_cell_angle_gamma    92.2891

_symmetry_space_group_name_H-M    "P 1"
_symmetry_int_tables_number       1

loop_
  _symmetry_equiv_pos_as_xyz
  'x, y, z'

loop_
  _atom_site_label
  _atom_site_occupancy
  _atom_site_fract_x
  _atom_site_fract_y
  _atom_site_fract_z
  _atom_site_thermal_displace_type
  _atom_site_B_iso_or_equiv
  _atom_site_type_symbol
  N1       1.0000 0.00950  0.70409  0.27033  Biso   1.000  N
  N2       1.0000 0.04223  0.57758  0.57617  Biso   1.000  N
  N3       1.0000 0.07420  0.79706  0.22849  Biso   1.000  N
  N4       1.0000 0.10616  0.72897  0.51190  Biso   1.000  N
  N5       1.0000 0.13767  0.97546  0.16015  Biso   1.000  N
  N6       1.0000 0.16978  0.91695  0.44374  Biso   1.000  N
  N7       1.0000 0.20139  0.16599  0.09602  Biso   1.000  N
  N8       1.0000 0.23322  0.10673  0.38517  Biso   1.000  N
  N9       1.0000 0.26489  0.35542  0.04238  Biso   1.000  N
  N10      1.0000 0.29688  0.28787  0.33370  Biso   1.000  N
  N11      1.0000 0.32863  0.52473  0.99076  Biso   1.000  N
  N12      1.0000 0.36054  0.43843  0.28232  Biso   1.000  N
  N13      1.0000 0.39247  0.65411  0.93714  Biso   1.000  N
  N14      1.0000 0.42460  0.53951  0.22643  Biso   1.000  N
  N15      1.0000 0.45656  0.73202  0.88015  Biso   1.000  N
  N16      1.0000 0.48845  0.59750  0.17008  Biso   1.000  N
  N17      1.0000 0.52064  0.78094  0.82666  Biso   1.000  N
  N18      1.0000 0.55321  0.63939  0.13658  Biso   1.000  N
  N19      1.0000 0.57824  0.22471  0.99269  Biso   1.000  N
  N20      1.0000 0.61073  0.08106  0.30549  Biso   1.000  N
  N21      1.0000 0.64302  0.26477  0.95970  Biso   1.000  N
  N22      1.0000 0.67559  0.12204  0.27150  Biso   1.000  N
  N23      1.0000 0.70060  0.70899  0.12455  Biso   1.000  N
  N24      1.0000 0.73347  0.56741  0.42452  Biso   1.000  N
  N25      1.0000 0.76534  0.74100  0.07259  Biso   1.000  N
  N26      1.0000 0.79736  0.57527  0.34550  Biso   1.000  N
  N27      1.0000 0.82920  0.75033  0.99293  Biso   1.000  N
  N28      1.0000 0.86211  0.61150  0.29181  Biso   1.000  N
  N29      1.0000 0.88710  0.20021  0.14357  Biso   1.000  N
  N30      1.0000 0.91974  0.06196  0.45390  Biso   1.000  N
  N31      1.0000 0.95194  0.25243  0.10616  Biso   1.000  N
  N32      1.0000 0.98453  0.11558  0.41691  Biso   1.000  N
