data_image0
_cell_length_a       32.5693
_cell_length_b       2.15969
_cell_length_c       2.47182
_cell_angle_alpha    65.5648
_cell_angle_beta     87.6486
_cell_angle_gamma    90.0911

_symmetry_space_group_name_H-M    "P 1"
_symmetry_int_tables_number       1

loop_
  _symmetry_equiv_pos_as_xyz
  'x, y, z'

loop_
  _atom_site_label
  _atom_site_occupancy
  _atom_site_fract_x
  _atom_site_fract_y
  _atom_site_fract_z
  _atom_site_thermal_displace_type
  _atom_site_B_iso_or_equiv
  _atom_site_type_symbol
  N1       1.0000 0.01173  0.78372  0.93900  Biso   1.000  N
  N2       1.0000 0.04513  0.60767  0.29093  Biso   1.000  N
  N3       1.0000 0.06904  0.18292  0.12613  Biso   1.000  N
  N4       1.0000 0.10165  0.02532  0.43701  Biso   1.000  N
  N5       1.0000 0.13275  0.20511  0.08638  Biso   1.000  N
  N6       1.0000 0.16406  0.05410  0.37782  Biso   1.000  N
  N7       1.0000 0.19514  0.24170  0.01845  Biso   1.000  N
  N8       1.0000 0.22640  0.09029  0.31252  Biso   1.000  N
  N9       1.0000 0.25770  0.26778  0.96816  Biso   1.000  N
  N10      1.0000 0.28985  0.11046  0.28097  Biso   1.000  N
  N11      1.0000 0.31445  0.68208  0.12760  Biso   1.000  N
  N12      1.0000 0.34662  0.52431  0.44105  Biso   1.000  N
  N13      1.0000 0.37807  0.70104  0.09843  Biso   1.000  N
  N14      1.0000 0.40899  0.54714  0.39915  Biso   1.000  N
  N15      1.0000 0.44062  0.73261  0.04729  Biso   1.000  N
  N16      1.0000 0.47125  0.57659  0.35075  Biso   1.000  N
  N17      1.0000 0.50316  0.75086  0.01299  Biso   1.000  N
  N18      1.0000 0.53475  0.58823  0.33396  Biso   1.000  N
  N19      1.0000 0.55955  0.15436  0.18811  Biso   1.000  N
  N20      1.0000 0.59129  0.98792  0.51501  Biso   1.000  N
  N21      1.0000 0.62283  0.15857  0.18078  Biso   1.000  N
  N22      1.0000 0.65363  0.00005  0.49079  Biso   1.000  N
  N23      1.0000 0.68623  0.17934  0.13624  Biso   1.000  N
  N24      1.0000 0.71039  0.62257  0.26288  Biso   1.000  N
  N25      1.0000 0.74303  0.80242  0.90719  Biso   1.000  N
  N26      1.0000 0.77372  0.64477  0.21661  Biso   1.000  N
  N27      1.0000 0.80535  0.81654  0.88202  Biso   1.000  N
  N28      1.0000 0.83710  0.65063  0.20745  Biso   1.000  N
  N29      1.0000 0.86184  0.21706  0.05844  Biso   1.000  N
  N30      1.0000 0.89365  0.05240  0.38296  Biso   1.000  N
  N31      1.0000 0.92527  0.22629  0.04516  Biso   1.000  N
  N32      1.0000 0.95595  0.07223  0.35480  Biso   1.000  N
  N33      1.0000 0.98882  0.25544  0.99798  Biso   1.000  N
