data_image0
_cell_length_a       33.7825
_cell_length_b       2.17069
_cell_length_c       2.46783
_cell_angle_alpha    65.3357
_cell_angle_beta     86.2676
_cell_angle_gamma    91.0585

_symmetry_space_group_name_H-M    "P 1"
_symmetry_int_tables_number       1

loop_
  _symmetry_equiv_pos_as_xyz
  'x, y, z'

loop_
  _atom_site_label
  _atom_site_occupancy
  _atom_site_fract_x
  _atom_site_fract_y
  _atom_site_fract_z
  _atom_site_thermal_displace_type
  _atom_site_B_iso_or_equiv
  _atom_site_type_symbol
  N1       1.0000 0.01207  0.66737  0.08577  Biso   1.000  N
  N2       1.0000 0.04289  0.52011  0.39443  Biso   1.000  N
  N3       1.0000 0.07345  0.70951  0.04281  Biso   1.000  N
  N4       1.0000 0.10312  0.56173  0.33606  Biso   1.000  N
  N5       1.0000 0.13369  0.75437  0.97242  Biso   1.000  N
  N6       1.0000 0.16344  0.60369  0.26275  Biso   1.000  N
  N7       1.0000 0.19400  0.78631  0.90854  Biso   1.000  N
  N8       1.0000 0.22482  0.63787  0.21259  Biso   1.000  N
  N9       1.0000 0.24874  0.21788  0.05358  Biso   1.000  N
  N10      1.0000 0.27956  0.06921  0.36204  Biso   1.000  N
  N11      1.0000 0.31013  0.25172  0.00866  Biso   1.000  N
  N12      1.0000 0.34097  0.10377  0.31634  Biso   1.000  N
  N13      1.0000 0.36493  0.68572  0.15389  Biso   1.000  N
  N14      1.0000 0.39587  0.53776  0.45451  Biso   1.000  N
  N15      1.0000 0.42627  0.71955  0.09641  Biso   1.000  N
  N16      1.0000 0.45630  0.56535  0.38035  Biso   1.000  N
  N17      1.0000 0.48659  0.75499  0.01045  Biso   1.000  N
  N18      1.0000 0.51650  0.60048  0.29688  Biso   1.000  N
  N19      1.0000 0.54680  0.78570  0.93742  Biso   1.000  N
  N20      1.0000 0.57794  0.63517  0.24284  Biso   1.000  N
  N21      1.0000 0.60130  0.21844  0.07164  Biso   1.000  N
  N22      1.0000 0.63268  0.05760  0.40645  Biso   1.000  N
  N23      1.0000 0.65598  0.64033  0.23531  Biso   1.000  N
  N24      1.0000 0.68710  0.49491  0.54266  Biso   1.000  N
  N25      1.0000 0.71736  0.70020  0.18752  Biso   1.000  N
  N26      1.0000 0.74705  0.57926  0.48326  Biso   1.000  N
  N27      1.0000 0.77741  0.80396  0.12412  Biso   1.000  N
  N28      1.0000 0.80740  0.70722  0.40879  Biso   1.000  N
  N29      1.0000 0.83743  0.95126  0.04651  Biso   1.000  N
  N30      1.0000 0.86729  0.86199  0.33448  Biso   1.000  N
  N31      1.0000 0.89763  0.10191  0.98023  Biso   1.000  N
  N32      1.0000 0.92728  0.00154  0.27910  Biso   1.000  N
  N33      1.0000 0.95758  0.22472  0.93016  Biso   1.000  N
  N34      1.0000 0.98843  0.08843  0.24099  Biso   1.000  N
