data_image0
_cell_length_a       32.4863
_cell_length_b       2.1459
_cell_length_c       2.47342
_cell_angle_alpha    65.7803
_cell_angle_beta     90.7371
_cell_angle_gamma    88.1426

_symmetry_space_group_name_H-M    "P 1"
_symmetry_int_tables_number       1

loop_
  _symmetry_equiv_pos_as_xyz
  'x, y, z'

loop_
  _atom_site_label
  _atom_site_occupancy
  _atom_site_fract_x
  _atom_site_fract_y
  _atom_site_fract_z
  _atom_site_thermal_displace_type
  _atom_site_B_iso_or_equiv
  _atom_site_type_symbol
  N1       1.0000 0.01173  0.81755  0.80993  Biso   1.000  N
  N2       1.0000 0.04431  0.63909  0.14560  Biso   1.000  N
  N3       1.0000 0.07596  0.78202  0.83366  Biso   1.000  N
  N4       1.0000 0.10802  0.60671  0.17220  Biso   1.000  N
  N5       1.0000 0.13329  0.16236  0.04379  Biso   1.000  N
  N6       1.0000 0.16546  0.98528  0.38464  Biso   1.000  N
  N7       1.0000 0.19703  0.12854  0.07431  Biso   1.000  N
  N8       1.0000 0.22945  0.94964  0.41745  Biso   1.000  N
  N9       1.0000 0.25387  0.49828  0.29569  Biso   1.000  N
  N10      1.0000 0.28659  0.32274  0.63493  Biso   1.000  N
  N11      1.0000 0.31899  0.46422  0.31517  Biso   1.000  N
  N12      1.0000 0.34346  0.88848  0.45318  Biso   1.000  N
  N13      1.0000 0.37550  0.03834  0.12480  Biso   1.000  N
  N14      1.0000 0.40716  0.85553  0.45351  Biso   1.000  N
  N15      1.0000 0.43815  0.99972  0.14125  Biso   1.000  N
  N16      1.0000 0.46955  0.80522  0.48353  Biso   1.000  N
  N17      1.0000 0.50105  0.93717  0.18500  Biso   1.000  N
  N18      1.0000 0.53222  0.73650  0.53289  Biso   1.000  N
  N19      1.0000 0.56356  0.86801  0.23002  Biso   1.000  N
  N20      1.0000 0.59472  0.67270  0.57157  Biso   1.000  N
  N21      1.0000 0.62734  0.81483  0.25162  Biso   1.000  N
  N22      1.0000 0.65137  0.23053  0.41106  Biso   1.000  N
  N23      1.0000 0.68440  0.38368  0.06920  Biso   1.000  N
  N24      1.0000 0.70858  0.79925  0.22831  Biso   1.000  N
  N25      1.0000 0.74104  0.94006  0.91018  Biso   1.000  N
  N26      1.0000 0.77242  0.73791  0.25537  Biso   1.000  N
  N27      1.0000 0.80339  0.86512  0.95176  Biso   1.000  N
  N28      1.0000 0.83498  0.66451  0.29403  Biso   1.000  N
  N29      1.0000 0.86717  0.80207  0.97644  Biso   1.000  N
  N30      1.0000 0.89189  0.22586  0.11194  Biso   1.000  N
  N31      1.0000 0.92397  0.36806  0.78838  Biso   1.000  N
  N32      1.0000 0.95550  0.18816  0.12281  Biso   1.000  N
  N33      1.0000 0.98787  0.33438  0.80079  Biso   1.000  N
