data_image0
_cell_length_a       31.5999
_cell_length_b       2.14181
_cell_length_c       2.46203
_cell_angle_alpha    66.0795
_cell_angle_beta     91.5696
_cell_angle_gamma    88.0056

_symmetry_space_group_name_H-M    "P 1"
_symmetry_int_tables_number       1

loop_
  _symmetry_equiv_pos_as_xyz
  'x, y, z'

loop_
  _atom_site_label
  _atom_site_occupancy
  _atom_site_fract_x
  _atom_site_fract_y
  _atom_site_fract_z
  _atom_site_thermal_displace_type
  _atom_site_B_iso_or_equiv
  _atom_site_type_symbol
  N1       1.0000 0.01301  0.59678  0.32288  Biso   1.000  N
  N2       1.0000 0.04650  0.40668  0.68070  Biso   1.000  N
  N3       1.0000 0.07868  0.55131  0.37489  Biso   1.000  N
  N4       1.0000 0.11104  0.36794  0.71687  Biso   1.000  N
  N5       1.0000 0.14432  0.51418  0.39556  Biso   1.000  N
  N6       1.0000 0.16977  0.93142  0.54678  Biso   1.000  N
  N7       1.0000 0.20283  0.07166  0.23055  Biso   1.000  N
  N8       1.0000 0.23554  0.88583  0.56923  Biso   1.000  N
  N9       1.0000 0.26840  0.02119  0.25280  Biso   1.000  N
  N10      1.0000 0.29429  0.43250  0.40494  Biso   1.000  N
  N11      1.0000 0.32732  0.56078  0.09683  Biso   1.000  N
  N12      1.0000 0.35992  0.37080  0.43942  Biso   1.000  N
  N13      1.0000 0.39305  0.49714  0.13334  Biso   1.000  N
  N14      1.0000 0.41884  0.90764  0.28802  Biso   1.000  N
  N15      1.0000 0.45196  0.03486  0.98129  Biso   1.000  N
  N16      1.0000 0.48452  0.84424  0.32445  Biso   1.000  N
  N17      1.0000 0.51760  0.97206  0.01746  Biso   1.000  N
  N18      1.0000 0.54350  0.38192  0.17273  Biso   1.000  N
  N19      1.0000 0.57646  0.51458  0.85956  Biso   1.000  N
  N20      1.0000 0.60905  0.32676  0.19975  Biso   1.000  N
  N21      1.0000 0.64227  0.46155  0.88659  Biso   1.000  N
  N22      1.0000 0.66769  0.87774  0.03585  Biso   1.000  N
  N23      1.0000 0.70083  0.02016  0.71460  Biso   1.000  N
  N24      1.0000 0.73340  0.83636  0.05125  Biso   1.000  N
  N25      1.0000 0.76542  0.98474  0.74055  Biso   1.000  N
  N26      1.0000 0.79771  0.79817  0.08597  Biso   1.000  N
  N27      1.0000 0.83004  0.93941  0.78548  Biso   1.000  N
  N28      1.0000 0.86342  0.74991  0.14435  Biso   1.000  N
  N29      1.0000 0.88869  0.29292  0.02721  Biso   1.000  N
  N30      1.0000 0.92194  0.10411  0.38697  Biso   1.000  N
  N31      1.0000 0.95444  0.24330  0.08648  Biso   1.000  N
  N32      1.0000 0.98753  0.05138  0.44664  Biso   1.000  N
