data_image0
_cell_length_a       29.5658
_cell_length_b       2.14685
_cell_length_c       2.47177
_cell_angle_alpha    65.9476
_cell_angle_beta     88.4424
_cell_angle_gamma    90.1834

_symmetry_space_group_name_H-M    "P 1"
_symmetry_int_tables_number       1

loop_
  _symmetry_equiv_pos_as_xyz
  'x, y, z'

loop_
  _atom_site_label
  _atom_site_occupancy
  _atom_site_fract_x
  _atom_site_fract_y
  _atom_site_fract_z
  _atom_site_thermal_displace_type
  _atom_site_B_iso_or_equiv
  _atom_site_type_symbol
  N1       1.0000 0.01365  0.69624  0.11845  Biso   1.000  N
  N2       1.0000 0.04894  0.54264  0.43930  Biso   1.000  N
  N3       1.0000 0.08360  0.71608  0.10542  Biso   1.000  N
  N4       1.0000 0.11901  0.56002  0.42861  Biso   1.000  N
  N5       1.0000 0.14594  0.12718  0.28787  Biso   1.000  N
  N6       1.0000 0.18137  0.96799  0.61272  Biso   1.000  N
  N7       1.0000 0.21604  0.13774  0.28137  Biso   1.000  N
  N8       1.0000 0.25026  0.97850  0.59537  Biso   1.000  N
  N9       1.0000 0.28468  0.15130  0.25604  Biso   1.000  N
  N10      1.0000 0.31908  0.99463  0.56393  Biso   1.000  N
  N11      1.0000 0.35479  0.16719  0.21491  Biso   1.000  N
  N12      1.0000 0.38168  0.61223  0.33722  Biso   1.000  N
  N13      1.0000 0.41715  0.78173  0.98994  Biso   1.000  N
  N14      1.0000 0.45168  0.60988  0.30207  Biso   1.000  N
  N15      1.0000 0.48577  0.76750  0.96838  Biso   1.000  N
  N16      1.0000 0.52036  0.59480  0.28086  Biso   1.000  N
  N17      1.0000 0.55573  0.76017  0.93587  Biso   1.000  N
  N18      1.0000 0.58266  0.20222  0.05586  Biso   1.000  N
  N19      1.0000 0.61827  0.36543  0.71287  Biso   1.000  N
  N20      1.0000 0.65419  0.20935  0.03274  Biso   1.000  N
  N21      1.0000 0.68063  0.78100  0.87747  Biso   1.000  N
  N22      1.0000 0.71657  0.60694  0.22782  Biso   1.000  N
  N23      1.0000 0.74319  0.17827  0.06943  Biso   1.000  N
  N24      1.0000 0.77887  0.01831  0.38890  Biso   1.000  N
  N25      1.0000 0.81320  0.19662  0.04745  Biso   1.000  N
  N26      1.0000 0.84759  0.04824  0.34876  Biso   1.000  N
  N27      1.0000 0.88177  0.23679  0.99820  Biso   1.000  N
  N28      1.0000 0.91633  0.09393  0.29643  Biso   1.000  N
  N29      1.0000 0.95077  0.27387  0.95615  Biso   1.000  N
  N30      1.0000 0.98623  0.12320  0.26957  Biso   1.000  N
