data_image0
_cell_length_a       31.7808
_cell_length_b       2.18807
_cell_length_c       2.44199
_cell_angle_alpha    63.457
_cell_angle_beta     87.3639
_cell_angle_gamma    84.3953

_symmetry_space_group_name_H-M    "P 1"
_symmetry_int_tables_number       1

loop_
  _symmetry_equiv_pos_as_xyz
  'x, y, z'

loop_
  _atom_site_label
  _atom_site_occupancy
  _atom_site_fract_x
  _atom_site_fract_y
  _atom_site_fract_z
  _atom_site_thermal_displace_type
  _atom_site_B_iso_or_equiv
  _atom_site_type_symbol
  N1       1.0000 0.01229  0.74116  0.03577  Biso   1.000  N
  N2       1.0000 0.04586  0.51362  0.37157  Biso   1.000  N
  N3       1.0000 0.07842  0.59489  0.05132  Biso   1.000  N
  N4       1.0000 0.11051  0.33391  0.37525  Biso   1.000  N
  N5       1.0000 0.14307  0.39822  0.05721  Biso   1.000  N
  N6       1.0000 0.17538  0.14224  0.38034  Biso   1.000  N
  N7       1.0000 0.20797  0.21677  0.06353  Biso   1.000  N
  N8       1.0000 0.24029  0.97486  0.38904  Biso   1.000  N
  N9       1.0000 0.27281  0.06824  0.07069  Biso   1.000  N
  N10      1.0000 0.30541  0.85360  0.39369  Biso   1.000  N
  N11      1.0000 0.33788  0.97783  0.07296  Biso   1.000  N
  N12      1.0000 0.37049  0.79829  0.39065  Biso   1.000  N
  N13      1.0000 0.40277  0.94990  0.06325  Biso   1.000  N
  N14      1.0000 0.43536  0.79590  0.37650  Biso   1.000  N
  N15      1.0000 0.46750  0.96418  0.04807  Biso   1.000  N
  N16      1.0000 0.50009  0.82281  0.35975  Biso   1.000  N
  N17      1.0000 0.53215  0.99447  0.03160  Biso   1.000  N
  N18      1.0000 0.56476  0.84580  0.34593  Biso   1.000  N
  N19      1.0000 0.59698  0.00459  0.02096  Biso   1.000  N
  N20      1.0000 0.62954  0.83385  0.33973  Biso   1.000  N
  N21      1.0000 0.66201  0.97241  0.01642  Biso   1.000  N
  N22      1.0000 0.69449  0.77771  0.33460  Biso   1.000  N
  N23      1.0000 0.72722  0.88985  0.01221  Biso   1.000  N
  N24      1.0000 0.75951  0.66754  0.33423  Biso   1.000  N
  N25      1.0000 0.79217  0.75697  0.01395  Biso   1.000  N
  N26      1.0000 0.82443  0.52009  0.33750  Biso   1.000  N
  N27      1.0000 0.85721  0.59153  0.02145  Biso   1.000  N
  N28      1.0000 0.88937  0.34552  0.34773  Biso   1.000  N
  N29      1.0000 0.92195  0.40924  0.03171  Biso   1.000  N
  N30      1.0000 0.95409  0.17503  0.35948  Biso   1.000  N
  N31      1.0000 0.98803  0.28150  0.02790  Biso   1.000  N
