data_image0
_cell_length_a       27.7061
_cell_length_b       2.1586
_cell_length_c       2.46838
_cell_angle_alpha    65.4904
_cell_angle_beta     86.2369
_cell_angle_gamma    88.0897

_symmetry_space_group_name_H-M    "P 1"
_symmetry_int_tables_number       1

loop_
  _symmetry_equiv_pos_as_xyz
  'x, y, z'

loop_
  _atom_site_label
  _atom_site_occupancy
  _atom_site_fract_x
  _atom_site_fract_y
  _atom_site_fract_z
  _atom_site_thermal_displace_type
  _atom_site_B_iso_or_equiv
  _atom_site_type_symbol
  N1       1.0000 0.01562  0.68876  0.13578  Biso   1.000  N
  N2       1.0000 0.05319  0.51499  0.45134  Biso   1.000  N
  N3       1.0000 0.09026  0.67160  0.10591  Biso   1.000  N
  N4       1.0000 0.12791  0.49667  0.42205  Biso   1.000  N
  N5       1.0000 0.15676  0.05196  0.27325  Biso   1.000  N
  N6       1.0000 0.19448  0.87369  0.58914  Biso   1.000  N
  N7       1.0000 0.23131  0.02841  0.24662  Biso   1.000  N
  N8       1.0000 0.26786  0.85098  0.54693  Biso   1.000  N
  N9       1.0000 0.30576  0.01407  0.18575  Biso   1.000  N
  N10      1.0000 0.33458  0.44892  0.30154  Biso   1.000  N
  N11      1.0000 0.37245  0.61109  0.94004  Biso   1.000  N
  N12      1.0000 0.40930  0.43685  0.23782  Biso   1.000  N
  N13      1.0000 0.44603  0.58997  0.89010  Biso   1.000  N
  N14      1.0000 0.48248  0.40816  0.19852  Biso   1.000  N
  N15      1.0000 0.51958  0.55769  0.86005  Biso   1.000  N
  N16      1.0000 0.55725  0.37918  0.17730  Biso   1.000  N
  N17      1.0000 0.58602  0.93280  0.03365  Biso   1.000  N
  N18      1.0000 0.62359  0.75748  0.34797  Biso   1.000  N
  N19      1.0000 0.66068  0.91800  0.00278  Biso   1.000  N
  N20      1.0000 0.69699  0.74617  0.30241  Biso   1.000  N
  N21      1.0000 0.73392  0.91074  0.95093  Biso   1.000  N
  N22      1.0000 0.77172  0.74343  0.25555  Biso   1.000  N
  N23      1.0000 0.80063  0.30251  0.10380  Biso   1.000  N
  N24      1.0000 0.83875  0.13806  0.40227  Biso   1.000  N
  N25      1.0000 0.87532  0.30437  0.04364  Biso   1.000  N
  N26      1.0000 0.91205  0.13767  0.33318  Biso   1.000  N
  N27      1.0000 0.94879  0.30234  0.97875  Biso   1.000  N
  N28      1.0000 0.98672  0.13342  0.28294  Biso   1.000  N
