data_image0
_cell_length_a       34.0697
_cell_length_b       2.18111
_cell_length_c       2.44455
_cell_angle_alpha    63.5127
_cell_angle_beta     86.5071
_cell_angle_gamma    82.207

_symmetry_space_group_name_H-M    "P 1"
_symmetry_int_tables_number       1

loop_
  _symmetry_equiv_pos_as_xyz
  'x, y, z'

loop_
  _atom_site_label
  _atom_site_occupancy
  _atom_site_fract_x
  _atom_site_fract_y
  _atom_site_fract_z
  _atom_site_thermal_displace_type
  _atom_site_B_iso_or_equiv
  _atom_site_type_symbol
  N1       1.0000 0.01161  0.65347  0.01679  Biso   1.000  N
  N2       1.0000 0.04319  0.42346  0.34819  Biso   1.000  N
  N3       1.0000 0.07372  0.51401  0.02390  Biso   1.000  N
  N4       1.0000 0.10403  0.27197  0.34351  Biso   1.000  N
  N5       1.0000 0.13461  0.34596  0.02310  Biso   1.000  N
  N6       1.0000 0.16507  0.08956  0.34363  Biso   1.000  N
  N7       1.0000 0.19551  0.14715  0.02452  Biso   1.000  N
  N8       1.0000 0.22582  0.87647  0.34792  Biso   1.000  N
  N9       1.0000 0.25625  0.92308  0.03188  Biso   1.000  N
  N10      1.0000 0.28663  0.65369  0.35499  Biso   1.000  N
  N11      1.0000 0.31718  0.70467  0.03904  Biso   1.000  N
  N12      1.0000 0.34737  0.44052  0.36364  Biso   1.000  N
  N13      1.0000 0.37792  0.49964  0.04591  Biso   1.000  N
  N14      1.0000 0.40834  0.24267  0.36793  Biso   1.000  N
  N15      1.0000 0.43882  0.30661  0.04978  Biso   1.000  N
  N16      1.0000 0.46923  0.05333  0.37133  Biso   1.000  N
  N17      1.0000 0.49978  0.12294  0.05260  Biso   1.000  N
  N18      1.0000 0.53015  0.87566  0.37557  Biso   1.000  N
  N19      1.0000 0.56076  0.95053  0.05781  Biso   1.000  N
  N20      1.0000 0.59113  0.71201  0.37935  Biso   1.000  N
  N21      1.0000 0.62177  0.79822  0.06081  Biso   1.000  N
  N22      1.0000 0.65226  0.57104  0.38199  Biso   1.000  N
  N23      1.0000 0.68265  0.66924  0.05990  Biso   1.000  N
  N24      1.0000 0.71325  0.45026  0.37737  Biso   1.000  N
  N25      1.0000 0.74378  0.55523  0.05456  Biso   1.000  N
  N26      1.0000 0.77434  0.34306  0.37030  Biso   1.000  N
  N27      1.0000 0.80475  0.45483  0.04552  Biso   1.000  N
  N28      1.0000 0.83532  0.24741  0.36261  Biso   1.000  N
  N29      1.0000 0.86574  0.36620  0.03936  Biso   1.000  N
  N30      1.0000 0.89644  0.16886  0.35571  Biso   1.000  N
  N31      1.0000 0.92660  0.29523  0.03273  Biso   1.000  N
  N32      1.0000 0.95724  0.08803  0.35328  Biso   1.000  N
  N33      1.0000 0.98872  0.19746  0.01948  Biso   1.000  N
