data_image0
_cell_length_a       33.0454
_cell_length_b       2.16244
_cell_length_c       2.45984
_cell_angle_alpha    65.7497
_cell_angle_beta     87.802
_cell_angle_gamma    88.7518

_symmetry_space_group_name_H-M    "P 1"
_symmetry_int_tables_number       1

loop_
  _symmetry_equiv_pos_as_xyz
  'x, y, z'

loop_
  _atom_site_label
  _atom_site_occupancy
  _atom_site_fract_x
  _atom_site_fract_y
  _atom_site_fract_z
  _atom_site_thermal_displace_type
  _atom_site_B_iso_or_equiv
  _atom_site_type_symbol
  N1       1.0000 0.01256  0.83721  0.99193  Biso   1.000  N
  N2       1.0000 0.04441  0.65368  0.31459  Biso   1.000  N
  N3       1.0000 0.07534  0.79163  0.97987  Biso   1.000  N
  N4       1.0000 0.10574  0.59651  0.29302  Biso   1.000  N
  N5       1.0000 0.13669  0.73973  0.95273  Biso   1.000  N
  N6       1.0000 0.16749  0.55979  0.25669  Biso   1.000  N
  N7       1.0000 0.19830  0.71424  0.91152  Biso   1.000  N
  N8       1.0000 0.22891  0.53757  0.21888  Biso   1.000  N
  N9       1.0000 0.25985  0.69264  0.88128  Biso   1.000  N
  N10      1.0000 0.29159  0.52374  0.20100  Biso   1.000  N
  N11      1.0000 0.31569  0.08032  0.06104  Biso   1.000  N
  N12      1.0000 0.34731  0.91348  0.38251  Biso   1.000  N
  N13      1.0000 0.37816  0.08542  0.04686  Biso   1.000  N
  N14      1.0000 0.40863  0.92844  0.36064  Biso   1.000  N
  N15      1.0000 0.43948  0.10217  0.02526  Biso   1.000  N
  N16      1.0000 0.47110  0.93739  0.34700  Biso   1.000  N
  N17      1.0000 0.49518  0.49519  0.20643  Biso   1.000  N
  N18      1.0000 0.52699  0.33555  0.52557  Biso   1.000  N
  N19      1.0000 0.55776  0.51265  0.18785  Biso   1.000  N
  N20      1.0000 0.58851  0.37282  0.49460  Biso   1.000  N
  N21      1.0000 0.61911  0.56068  0.14966  Biso   1.000  N
  N22      1.0000 0.65005  0.41775  0.45180  Biso   1.000  N
  N23      1.0000 0.68083  0.59695  0.10971  Biso   1.000  N
  N24      1.0000 0.71144  0.43683  0.41832  Biso   1.000  N
  N25      1.0000 0.74240  0.59810  0.08207  Biso   1.000  N
  N26      1.0000 0.77309  0.41531  0.39608  Biso   1.000  N
  N27      1.0000 0.80392  0.55236  0.06463  Biso   1.000  N
  N28      1.0000 0.83449  0.35225  0.38190  Biso   1.000  N
  N29      1.0000 0.86546  0.47471  0.05165  Biso   1.000  N
  N30      1.0000 0.89602  0.26863  0.36616  Biso   1.000  N
  N31      1.0000 0.92677  0.38852  0.02898  Biso   1.000  N
  N32      1.0000 0.95726  0.19517  0.34111  Biso   1.000  N
  N33      1.0000 0.98946  0.34507  0.99366  Biso   1.000  N
