data_image0
_cell_length_a       35.5617
_cell_length_b       2.16888
_cell_length_c       2.4741
_cell_angle_alpha    65.3148
_cell_angle_beta     83.9597
_cell_angle_gamma    88.573

_symmetry_space_group_name_H-M    "P 1"
_symmetry_int_tables_number       1

loop_
  _symmetry_equiv_pos_as_xyz
  'x, y, z'

loop_
  _atom_site_label
  _atom_site_occupancy
  _atom_site_fract_x
  _atom_site_fract_y
  _atom_site_fract_z
  _atom_site_thermal_displace_type
  _atom_site_B_iso_or_equiv
  _atom_site_type_symbol
  N1       1.0000 0.01349  0.72310  0.05411  Biso   1.000  N
  N2       1.0000 0.04280  0.57050  0.34667  Biso   1.000  N
  N3       1.0000 0.07172  0.74769  0.97540  Biso   1.000  N
  N4       1.0000 0.10133  0.58992  0.26603  Biso   1.000  N
  N5       1.0000 0.12371  0.16333  0.08277  Biso   1.000  N
  N6       1.0000 0.15363  0.99003  0.39915  Biso   1.000  N
  N7       1.0000 0.17597  0.56354  0.21480  Biso   1.000  N
  N8       1.0000 0.20571  0.40122  0.50289  Biso   1.000  N
  N9       1.0000 0.23440  0.58039  0.12821  Biso   1.000  N
  N10      1.0000 0.26308  0.42458  0.39826  Biso   1.000  N
  N11      1.0000 0.29188  0.60807  0.01540  Biso   1.000  N
  N12      1.0000 0.32043  0.44835  0.28741  Biso   1.000  N
  N13      1.0000 0.34928  0.62298  0.91579  Biso   1.000  N
  N14      1.0000 0.37889  0.45981  0.20833  Biso   1.000  N
  N15      1.0000 0.40119  0.03330  0.02774  Biso   1.000  N
  N16      1.0000 0.43108  0.86123  0.34462  Biso   1.000  N
  N17      1.0000 0.45344  0.43331  0.16581  Biso   1.000  N
  N18      1.0000 0.48275  0.26995  0.46300  Biso   1.000  N
  N19      1.0000 0.51185  0.44702  0.10000  Biso   1.000  N
  N20      1.0000 0.53994  0.28959  0.38728  Biso   1.000  N
  N21      1.0000 0.56913  0.46609  0.02555  Biso   1.000  N
  N22      1.0000 0.59822  0.30653  0.32169  Biso   1.000  N
  N23      1.0000 0.62099  0.87237  0.16178  Biso   1.000  N
  N24      1.0000 0.65015  0.71092  0.45875  Biso   1.000  N
  N25      1.0000 0.67931  0.87938  0.09825  Biso   1.000  N
  N26      1.0000 0.70745  0.71198  0.38433  Biso   1.000  N
  N27      1.0000 0.73674  0.88043  0.02130  Biso   1.000  N
  N28      1.0000 0.76484  0.71126  0.30983  Biso   1.000  N
  N29      1.0000 0.79399  0.87944  0.95112  Biso   1.000  N
  N30      1.0000 0.82314  0.71454  0.24912  Biso   1.000  N
  N31      1.0000 0.84589  0.28019  0.08724  Biso   1.000  N
  N32      1.0000 0.87503  0.12037  0.38186  Biso   1.000  N
  N33      1.0000 0.90410  0.29242  0.01756  Biso   1.000  N
  N34      1.0000 0.93238  0.13404  0.29834  Biso   1.000  N
  N35      1.0000 0.96140  0.30858  0.93078  Biso   1.000  N
  N36      1.0000 0.99069  0.15354  0.21883  Biso   1.000  N
