data_image0
_cell_length_a       30.0977
_cell_length_b       2.16078
_cell_length_c       2.46053
_cell_angle_alpha    65.8999
_cell_angle_beta     87.1539
_cell_angle_gamma    84.886

_symmetry_space_group_name_H-M    "P 1"
_symmetry_int_tables_number       1

loop_
  _symmetry_equiv_pos_as_xyz
  'x, y, z'

loop_
  _atom_site_label
  _atom_site_occupancy
  _atom_site_fract_x
  _atom_site_fract_y
  _atom_site_fract_z
  _atom_site_thermal_displace_type
  _atom_site_B_iso_or_equiv
  _atom_site_type_symbol
  N1       1.0000 0.01901  0.02678  0.09972  Biso   1.000  N
  N2       1.0000 0.05286  0.78215  0.42212  Biso   1.000  N
  N3       1.0000 0.08644  0.87624  0.09014  Biso   1.000  N
  N4       1.0000 0.12058  0.65165  0.40217  Biso   1.000  N
  N5       1.0000 0.15533  0.77580  0.05438  Biso   1.000  N
  N6       1.0000 0.18184  0.18528  0.18328  Biso   1.000  N
  N7       1.0000 0.21688  0.31741  0.83680  Biso   1.000  N
  N8       1.0000 0.25072  0.11879  0.15321  Biso   1.000  N
  N9       1.0000 0.28444  0.25058  0.82308  Biso   1.000  N
  N10      1.0000 0.31953  0.04202  0.15601  Biso   1.000  N
  N11      1.0000 0.34604  0.57285  0.01533  Biso   1.000  N
  N12      1.0000 0.38094  0.37160  0.34430  Biso   1.000  N
  N13      1.0000 0.41503  0.52240  0.01471  Biso   1.000  N
  N14      1.0000 0.44849  0.35295  0.32881  Biso   1.000  N
  N15      1.0000 0.48262  0.51983  0.99001  Biso   1.000  N
  N16      1.0000 0.51618  0.35019  0.30355  Biso   1.000  N
  N17      1.0000 0.55017  0.49989  0.97288  Biso   1.000  N
  N18      1.0000 0.58518  0.30001  0.29948  Biso   1.000  N
  N19      1.0000 0.61176  0.83038  0.15943  Biso   1.000  N
  N20      1.0000 0.64664  0.62001  0.49194  Biso   1.000  N
  N21      1.0000 0.68065  0.74243  0.16557  Biso   1.000  N
  N22      1.0000 0.71440  0.52809  0.48446  Biso   1.000  N
  N23      1.0000 0.74830  0.64512  0.14948  Biso   1.000  N
  N24      1.0000 0.78223  0.42063  0.46002  Biso   1.000  N
  N25      1.0000 0.81615  0.52215  0.12288  Biso   1.000  N
  N26      1.0000 0.84984  0.28279  0.43466  Biso   1.000  N
  N27      1.0000 0.88377  0.37040  0.10245  Biso   1.000  N
  N28      1.0000 0.91754  0.12394  0.42100  Biso   1.000  N
  N29      1.0000 0.95135  0.19957  0.09678  Biso   1.000  N
  N30      1.0000 0.98507  0.94806  0.42134  Biso   1.000  N
