data_image0
_cell_length_a       33.5916
_cell_length_b       2.15625
_cell_length_c       2.46535
_cell_angle_alpha    65.6617
_cell_angle_beta     85.0874
_cell_angle_gamma    88.0907

_symmetry_space_group_name_H-M    "P 1"
_symmetry_int_tables_number       1

loop_
  _symmetry_equiv_pos_as_xyz
  'x, y, z'

loop_
  _atom_site_label
  _atom_site_occupancy
  _atom_site_fract_x
  _atom_site_fract_y
  _atom_site_fract_z
  _atom_site_thermal_displace_type
  _atom_site_B_iso_or_equiv
  _atom_site_type_symbol
  N1       1.0000 0.01185  0.73291  0.01577  Biso   1.000  N
  N2       1.0000 0.04261  0.56253  0.32887  Biso   1.000  N
  N3       1.0000 0.07372  0.72636  0.98318  Biso   1.000  N
  N4       1.0000 0.10439  0.55810  0.29465  Biso   1.000  N
  N5       1.0000 0.12870  0.12056  0.13601  Biso   1.000  N
  N6       1.0000 0.15974  0.95585  0.43653  Biso   1.000  N
  N7       1.0000 0.19041  0.11905  0.08073  Biso   1.000  N
  N8       1.0000 0.22075  0.95513  0.36336  Biso   1.000  N
  N9       1.0000 0.25097  0.12736  0.99199  Biso   1.000  N
  N10      1.0000 0.28142  0.96326  0.27090  Biso   1.000  N
  N11      1.0000 0.31192  0.12401  0.91079  Biso   1.000  N
  N12      1.0000 0.34331  0.96526  0.20362  Biso   1.000  N
  N13      1.0000 0.36733  0.53435  0.04042  Biso   1.000  N
  N14      1.0000 0.39866  0.38156  0.33270  Biso   1.000  N
  N15      1.0000 0.42934  0.55202  0.97344  Biso   1.000  N
  N16      1.0000 0.46047  0.39825  0.26643  Biso   1.000  N
  N17      1.0000 0.48502  0.97166  0.10117  Biso   1.000  N
  N18      1.0000 0.51588  0.81658  0.39982  Biso   1.000  N
  N19      1.0000 0.54660  0.98893  0.03996  Biso   1.000  N
  N20      1.0000 0.57794  0.82566  0.33859  Biso   1.000  N
  N21      1.0000 0.60164  0.39227  0.16719  Biso   1.000  N
  N22      1.0000 0.63324  0.20935  0.49972  Biso   1.000  N
  N23      1.0000 0.65678  0.77430  0.32771  Biso   1.000  N
  N24      1.0000 0.68814  0.59962  0.63541  Biso   1.000  N
  N25      1.0000 0.71852  0.76614  0.28109  Biso   1.000  N
  N26      1.0000 0.74854  0.59937  0.57469  Biso   1.000  N
  N27      1.0000 0.78010  0.76784  0.20748  Biso   1.000  N
  N28      1.0000 0.80391  0.20417  0.32136  Biso   1.000  N
  N29      1.0000 0.83529  0.37069  0.95118  Biso   1.000  N
  N30      1.0000 0.86570  0.20344  0.24090  Biso   1.000  N
  N31      1.0000 0.89613  0.36648  0.88528  Biso   1.000  N
  N32      1.0000 0.92607  0.19235  0.18875  Biso   1.000  N
  N33      1.0000 0.95705  0.34905  0.84752  Biso   1.000  N
  N34      1.0000 0.98786  0.17554  0.16281  Biso   1.000  N
