data_image0
_cell_length_a       33.4167
_cell_length_b       2.17006
_cell_length_c       2.45069
_cell_angle_alpha    63.6563
_cell_angle_beta     89.4394
_cell_angle_gamma    92.231

_symmetry_space_group_name_H-M    "P 1"
_symmetry_int_tables_number       1

loop_
  _symmetry_equiv_pos_as_xyz
  'x, y, z'

loop_
  _atom_site_label
  _atom_site_occupancy
  _atom_site_fract_x
  _atom_site_fract_y
  _atom_site_fract_z
  _atom_site_thermal_displace_type
  _atom_site_B_iso_or_equiv
  _atom_site_type_symbol
  N1       1.0000 0.01112  0.89252  0.08403  Biso   1.000  N
  N2       1.0000 0.04303  0.75393  0.40077  Biso   1.000  N
  N3       1.0000 0.07382  0.95925  0.06201  Biso   1.000  N
  N4       1.0000 0.10447  0.85804  0.36622  Biso   1.000  N
  N5       1.0000 0.13520  0.07654  0.03165  Biso   1.000  N
  N6       1.0000 0.16623  0.98784  0.33370  Biso   1.000  N
  N7       1.0000 0.19670  0.21103  0.99764  Biso   1.000  N
  N8       1.0000 0.22776  0.13375  0.29574  Biso   1.000  N
  N9       1.0000 0.25801  0.36328  0.95268  Biso   1.000  N
  N10      1.0000 0.28924  0.28647  0.24560  Biso   1.000  N
  N11      1.0000 0.31975  0.51320  0.90389  Biso   1.000  N
  N12      1.0000 0.35049  0.42390  0.20335  Biso   1.000  N
  N13      1.0000 0.38140  0.63129  0.86791  Biso   1.000  N
  N14      1.0000 0.41293  0.49214  0.19221  Biso   1.000  N
  N15      1.0000 0.43696  0.07270  0.05575  Biso   1.000  N
  N16      1.0000 0.46851  0.92690  0.37878  Biso   1.000  N
  N17      1.0000 0.49954  0.10641  0.04278  Biso   1.000  N
  N18      1.0000 0.53032  0.95664  0.34340  Biso   1.000  N
  N19      1.0000 0.56122  0.12497  0.00301  Biso   1.000  N
  N20      1.0000 0.59188  0.96608  0.30618  Biso   1.000  N
  N21      1.0000 0.62305  0.13458  0.97384  Biso   1.000  N
  N22      1.0000 0.65440  0.98008  0.30016  Biso   1.000  N
  N23      1.0000 0.67863  0.55484  0.16757  Biso   1.000  N
  N24      1.0000 0.70988  0.39505  0.49523  Biso   1.000  N
  N25      1.0000 0.74118  0.53855  0.16841  Biso   1.000  N
  N26      1.0000 0.77141  0.34510  0.47708  Biso   1.000  N
  N27      1.0000 0.80242  0.47203  0.14775  Biso   1.000  N
  N28      1.0000 0.83290  0.28376  0.45630  Biso   1.000  N
  N29      1.0000 0.86392  0.41545  0.12914  Biso   1.000  N
  N30      1.0000 0.89439  0.22961  0.44316  Biso   1.000  N
  N31      1.0000 0.92526  0.35766  0.12148  Biso   1.000  N
  N32      1.0000 0.95597  0.19319  0.43514  Biso   1.000  N
  N33      1.0000 0.98801  0.37573  0.09244  Biso   1.000  N
