data_image0
_cell_length_a       35.4994
_cell_length_b       2.1785
_cell_length_c       2.45354
_cell_angle_alpha    63.6096
_cell_angle_beta     90.3946
_cell_angle_gamma    94.2747

_symmetry_space_group_name_H-M    "P 1"
_symmetry_int_tables_number       1

loop_
  _symmetry_equiv_pos_as_xyz
  'x, y, z'

loop_
  _atom_site_label
  _atom_site_occupancy
  _atom_site_fract_x
  _atom_site_fract_y
  _atom_site_fract_z
  _atom_site_thermal_displace_type
  _atom_site_B_iso_or_equiv
  _atom_site_type_symbol
  N1       1.0000 0.01299  0.67239  0.92298  Biso   1.000  N
  N2       1.0000 0.04289  0.54299  0.24067  Biso   1.000  N
  N3       1.0000 0.07214  0.72817  0.90682  Biso   1.000  N
  N4       1.0000 0.10073  0.57481  0.21217  Biso   1.000  N
  N5       1.0000 0.13013  0.75247  0.88543  Biso   1.000  N
  N6       1.0000 0.15965  0.61490  0.21593  Biso   1.000  N
  N7       1.0000 0.18218  0.20681  0.08441  Biso   1.000  N
  N8       1.0000 0.21178  0.06423  0.41899  Biso   1.000  N
  N9       1.0000 0.24093  0.23258  0.09187  Biso   1.000  N
  N10      1.0000 0.26953  0.06698  0.40608  Biso   1.000  N
  N11      1.0000 0.29867  0.22849  0.07456  Biso   1.000  N
  N12      1.0000 0.32761  0.07006  0.37994  Biso   1.000  N
  N13      1.0000 0.35674  0.24372  0.04596  Biso   1.000  N
  N14      1.0000 0.38552  0.10101  0.35669  Biso   1.000  N
  N15      1.0000 0.41462  0.29021  0.02486  Biso   1.000  N
  N16      1.0000 0.44436  0.16051  0.35419  Biso   1.000  N
  N17      1.0000 0.46686  0.75852  0.21658  Biso   1.000  N
  N18      1.0000 0.49667  0.64207  0.54099  Biso   1.000  N
  N19      1.0000 0.52577  0.87000  0.20546  Biso   1.000  N
  N20      1.0000 0.55484  0.80651  0.50238  Biso   1.000  N
  N21      1.0000 0.58355  0.05242  0.15791  Biso   1.000  N
  N22      1.0000 0.61293  0.98691  0.45155  Biso   1.000  N
  N23      1.0000 0.64166  0.22523  0.10945  Biso   1.000  N
  N24      1.0000 0.67096  0.14697  0.40959  Biso   1.000  N
  N25      1.0000 0.69979  0.38169  0.07549  Biso   1.000  N
  N26      1.0000 0.72896  0.29894  0.38096  Biso   1.000  N
  N27      1.0000 0.75807  0.53660  0.04946  Biso   1.000  N
  N28      1.0000 0.78692  0.45782  0.35679  Biso   1.000  N
  N29      1.0000 0.81601  0.70104  0.02381  Biso   1.000  N
  N30      1.0000 0.84505  0.62576  0.32644  Biso   1.000  N
  N31      1.0000 0.87407  0.86989  0.99125  Biso   1.000  N
  N32      1.0000 0.90313  0.79310  0.29542  Biso   1.000  N
  N33      1.0000 0.93202  0.03168  0.96200  Biso   1.000  N
  N34      1.0000 0.96107  0.93183  0.27174  Biso   1.000  N
  N35      1.0000 0.99121  0.14517  0.92620  Biso   1.000  N
