data_image0
_cell_length_a       32.3794
_cell_length_b       2.17651
_cell_length_c       2.44998
_cell_angle_alpha    63.648
_cell_angle_beta     87.7674
_cell_angle_gamma    86.6156

_symmetry_space_group_name_H-M    "P 1"
_symmetry_int_tables_number       1

loop_
  _symmetry_equiv_pos_as_xyz
  'x, y, z'

loop_
  _atom_site_label
  _atom_site_occupancy
  _atom_site_fract_x
  _atom_site_fract_y
  _atom_site_fract_z
  _atom_site_thermal_displace_type
  _atom_site_B_iso_or_equiv
  _atom_site_type_symbol
  N1       1.0000 0.01445  0.99979  0.01116  Biso   1.000  N
  N2       1.0000 0.04580  0.75533  0.32826  Biso   1.000  N
  N3       1.0000 0.07765  0.82213  0.00910  Biso   1.000  N
  N4       1.0000 0.10901  0.57899  0.32994  Biso   1.000  N
  N5       1.0000 0.14092  0.65288  0.01364  Biso   1.000  N
  N6       1.0000 0.17254  0.41819  0.33375  Biso   1.000  N
  N7       1.0000 0.20431  0.50870  0.01283  Biso   1.000  N
  N8       1.0000 0.23606  0.29051  0.32638  Biso   1.000  N
  N9       1.0000 0.26780  0.41108  0.99430  Biso   1.000  N
  N10      1.0000 0.29991  0.22049  0.29786  Biso   1.000  N
  N11      1.0000 0.33150  0.35934  0.96269  Biso   1.000  N
  N12      1.0000 0.36351  0.18542  0.26825  Biso   1.000  N
  N13      1.0000 0.39524  0.32871  0.93694  Biso   1.000  N
  N14      1.0000 0.42799  0.14175  0.26267  Biso   1.000  N
  N15      1.0000 0.45281  0.68698  0.12926  Biso   1.000  N
  N16      1.0000 0.48548  0.50856  0.44826  Biso   1.000  N
  N17      1.0000 0.51729  0.67651  0.11145  Biso   1.000  N
  N18      1.0000 0.54894  0.56406  0.40315  Biso   1.000  N
  N19      1.0000 0.58067  0.73323  0.06830  Biso   1.000  N
  N20      1.0000 0.61349  0.55426  0.38835  Biso   1.000  N
  N21      1.0000 0.63800  0.09759  0.25809  Biso   1.000  N
  N22      1.0000 0.67092  0.91034  0.57890  Biso   1.000  N
  N23      1.0000 0.70340  0.05291  0.23877  Biso   1.000  N
  N24      1.0000 0.72815  0.47295  0.35453  Biso   1.000  N
  N25      1.0000 0.76059  0.61349  0.00834  Biso   1.000  N
  N26      1.0000 0.79261  0.40818  0.31959  Biso   1.000  N
  N27      1.0000 0.82432  0.50520  0.99678  Biso   1.000  N
  N28      1.0000 0.85585  0.27485  0.31998  Biso   1.000  N
  N29      1.0000 0.88787  0.34802  0.00772  Biso   1.000  N
  N30      1.0000 0.91926  0.11024  0.33260  Biso   1.000  N
  N31      1.0000 0.95120  0.17735  0.01574  Biso   1.000  N
  N32      1.0000 0.98249  0.93193  0.33242  Biso   1.000  N
