data_image0
_cell_length_a       32.687
_cell_length_b       2.15419
_cell_length_c       2.46918
_cell_angle_alpha    65.5822
_cell_angle_beta     85.792
_cell_angle_gamma    90.0232

_symmetry_space_group_name_H-M    "P 1"
_symmetry_int_tables_number       1

loop_
  _symmetry_equiv_pos_as_xyz
  'x, y, z'

loop_
  _atom_site_label
  _atom_site_occupancy
  _atom_site_fract_x
  _atom_site_fract_y
  _atom_site_fract_z
  _atom_site_thermal_displace_type
  _atom_site_B_iso_or_equiv
  _atom_site_type_symbol
  N1       1.0000 0.01444  0.80204  0.88737  Biso   1.000  N
  N2       1.0000 0.04746  0.62936  0.23093  Biso   1.000  N
  N3       1.0000 0.07154  0.20861  0.05996  Biso   1.000  N
  N4       1.0000 0.10373  0.05470  0.36804  Biso   1.000  N
  N5       1.0000 0.13533  0.23445  0.01500  Biso   1.000  N
  N6       1.0000 0.16700  0.08305  0.32425  Biso   1.000  N
  N7       1.0000 0.19192  0.65972  0.16401  Biso   1.000  N
  N8       1.0000 0.22389  0.51309  0.46148  Biso   1.000  N
  N9       1.0000 0.25531  0.69658  0.10286  Biso   1.000  N
  N10      1.0000 0.28645  0.55218  0.38448  Biso   1.000  N
  N11      1.0000 0.31760  0.74455  0.01519  Biso   1.000  N
  N12      1.0000 0.34872  0.59668  0.29852  Biso   1.000  N
  N13      1.0000 0.38008  0.77780  0.94062  Biso   1.000  N
  N14      1.0000 0.41214  0.62864  0.23806  Biso   1.000  N
  N15      1.0000 0.43689  0.20836  0.07255  Biso   1.000  N
  N16      1.0000 0.46897  0.06083  0.37153  Biso   1.000  N
  N17      1.0000 0.50041  0.24080  0.01318  Biso   1.000  N
  N18      1.0000 0.53257  0.09713  0.30954  Biso   1.000  N
  N19      1.0000 0.55730  0.67699  0.14651  Biso   1.000  N
  N20      1.0000 0.58928  0.53130  0.44344  Biso   1.000  N
  N21      1.0000 0.62088  0.71787  0.07985  Biso   1.000  N
  N22      1.0000 0.65163  0.57129  0.36619  Biso   1.000  N
  N23      1.0000 0.68322  0.75839  0.00391  Biso   1.000  N
  N24      1.0000 0.71507  0.60655  0.30596  Biso   1.000  N
  N25      1.0000 0.73978  0.17909  0.14846  Biso   1.000  N
  N26      1.0000 0.77154  0.02433  0.45862  Biso   1.000  N
  N27      1.0000 0.80328  0.20640  0.11223  Biso   1.000  N
  N28      1.0000 0.83371  0.04885  0.41894  Biso   1.000  N
  N29      1.0000 0.86564  0.22675  0.07500  Biso   1.000  N
  N30      1.0000 0.89639  0.06731  0.37567  Biso   1.000  N
  N31      1.0000 0.92784  0.24418  0.02114  Biso   1.000  N
  N32      1.0000 0.95859  0.09013  0.31576  Biso   1.000  N
  N33      1.0000 0.99138  0.27451  0.94575  Biso   1.000  N
