data_image0
_cell_length_a       35.5232
_cell_length_b       2.18371
_cell_length_c       2.44786
_cell_angle_alpha    63.5019
_cell_angle_beta     90.9087
_cell_angle_gamma    89.8361

_symmetry_space_group_name_H-M    "P 1"
_symmetry_int_tables_number       1

loop_
  _symmetry_equiv_pos_as_xyz
  'x, y, z'

loop_
  _atom_site_label
  _atom_site_occupancy
  _atom_site_fract_x
  _atom_site_fract_y
  _atom_site_fract_z
  _atom_site_thermal_displace_type
  _atom_site_B_iso_or_equiv
  _atom_site_type_symbol
  N1       1.0000 0.01030  0.75940  0.06126  Biso   1.000  N
  N2       1.0000 0.04044  0.59348  0.39998  Biso   1.000  N
  N3       1.0000 0.06917  0.77348  0.07944  Biso   1.000  N
  N4       1.0000 0.09829  0.65766  0.39499  Biso   1.000  N
  N5       1.0000 0.12679  0.85596  0.06922  Biso   1.000  N
  N6       1.0000 0.15611  0.74436  0.38525  Biso   1.000  N
  N7       1.0000 0.18467  0.93962  0.06763  Biso   1.000  N
  N8       1.0000 0.21386  0.82476  0.39309  Biso   1.000  N
  N9       1.0000 0.24235  0.02606  0.08013  Biso   1.000  N
  N10      1.0000 0.27159  0.91478  0.40287  Biso   1.000  N
  N11      1.0000 0.30014  0.12032  0.08249  Biso   1.000  N
  N12      1.0000 0.32928  0.01670  0.39684  Biso   1.000  N
  N13      1.0000 0.35781  0.22304  0.07371  Biso   1.000  N
  N14      1.0000 0.38694  0.10714  0.39499  Biso   1.000  N
  N15      1.0000 0.41571  0.30455  0.08358  Biso   1.000  N
  N16      1.0000 0.44476  0.17302  0.41482  Biso   1.000  N
  N17      1.0000 0.47342  0.35682  0.10506  Biso   1.000  N
  N18      1.0000 0.50273  0.20617  0.43236  Biso   1.000  N
  N19      1.0000 0.53214  0.37197  0.10045  Biso   1.000  N
  N20      1.0000 0.55474  0.80319  0.23351  Biso   1.000  N
  N21      1.0000 0.58431  0.95717  0.90202  Biso   1.000  N
  N22      1.0000 0.61321  0.75823  0.23340  Biso   1.000  N
  N23      1.0000 0.64197  0.84649  0.92944  Biso   1.000  N
  N24      1.0000 0.67054  0.62497  0.26918  Biso   1.000  N
  N25      1.0000 0.69960  0.69762  0.97055  Biso   1.000  N
  N26      1.0000 0.72795  0.47089  0.30502  Biso   1.000  N
  N27      1.0000 0.75703  0.55938  0.99676  Biso   1.000  N
  N28      1.0000 0.78555  0.34165  0.32576  Biso   1.000  N
  N29      1.0000 0.81457  0.43956  0.01601  Biso   1.000  N
  N30      1.0000 0.84320  0.22815  0.34767  Biso   1.000  N
  N31      1.0000 0.87222  0.33637  0.04233  Biso   1.000  N
  N32      1.0000 0.90120  0.14310  0.37421  Biso   1.000  N
  N33      1.0000 0.92989  0.27576  0.06060  Biso   1.000  N
  N34      1.0000 0.95883  0.09995  0.38979  Biso   1.000  N
  N35      1.0000 0.98869  0.26074  0.06061  Biso   1.000  N
