data_image0
_cell_length_a       32.6605
_cell_length_b       2.14976
_cell_length_c       2.46636
_cell_angle_alpha    65.6792
_cell_angle_beta     87.4342
_cell_angle_gamma    90.0448

_symmetry_space_group_name_H-M    "P 1"
_symmetry_int_tables_number       1

loop_
  _symmetry_equiv_pos_as_xyz
  'x, y, z'

loop_
  _atom_site_label
  _atom_site_occupancy
  _atom_site_fract_x
  _atom_site_fract_y
  _atom_site_fract_z
  _atom_site_thermal_displace_type
  _atom_site_B_iso_or_equiv
  _atom_site_type_symbol
  N1       1.0000 0.01194  0.73382  0.03940  Biso   1.000  N
  N2       1.0000 0.04413  0.57271  0.35329  Biso   1.000  N
  N3       1.0000 0.07548  0.74362  0.01115  Biso   1.000  N
  N4       1.0000 0.10625  0.58566  0.31442  Biso   1.000  N
  N5       1.0000 0.13774  0.76825  0.96539  Biso   1.000  N
  N6       1.0000 0.16852  0.61697  0.26793  Biso   1.000  N
  N7       1.0000 0.20005  0.79507  0.92677  Biso   1.000  N
  N8       1.0000 0.23188  0.63858  0.24138  Biso   1.000  N
  N9       1.0000 0.25669  0.20901  0.08921  Biso   1.000  N
  N10      1.0000 0.28857  0.05059  0.40883  Biso   1.000  N
  N11      1.0000 0.31997  0.22125  0.06906  Biso   1.000  N
  N12      1.0000 0.35198  0.06294  0.38983  Biso   1.000  N
  N13      1.0000 0.37632  0.63036  0.24806  Biso   1.000  N
  N14      1.0000 0.40851  0.48008  0.55888  Biso   1.000  N
  N15      1.0000 0.44090  0.64576  0.21061  Biso   1.000  N
  N16      1.0000 0.46528  0.08934  0.32628  Biso   1.000  N
  N17      1.0000 0.49734  0.26427  0.96543  Biso   1.000  N
  N18      1.0000 0.52867  0.10569  0.26286  Biso   1.000  N
  N19      1.0000 0.55968  0.28127  0.91343  Biso   1.000  N
  N20      1.0000 0.59076  0.12088  0.21858  Biso   1.000  N
  N21      1.0000 0.62226  0.29150  0.88173  Biso   1.000  N
  N22      1.0000 0.65420  0.13761  0.19810  Biso   1.000  N
  N23      1.0000 0.67896  0.71330  0.04802  Biso   1.000  N
  N24      1.0000 0.71092  0.56342  0.36189  Biso   1.000  N
  N25      1.0000 0.74252  0.73825  0.02103  Biso   1.000  N
  N26      1.0000 0.77452  0.58720  0.33487  Biso   1.000  N
  N27      1.0000 0.79912  0.16142  0.18463  Biso   1.000  N
  N28      1.0000 0.83128  0.00741  0.49862  Biso   1.000  N
  N29      1.0000 0.86258  0.18149  0.15507  Biso   1.000  N
  N30      1.0000 0.89377  0.02550  0.45669  Biso   1.000  N
  N31      1.0000 0.92484  0.20505  0.10447  Biso   1.000  N
  N32      1.0000 0.95596  0.05226  0.40515  Biso   1.000  N
  N33      1.0000 0.98844  0.23195  0.04394  Biso   1.000  N
