data_image0
_cell_length_a       35.4792
_cell_length_b       2.18835
_cell_length_c       2.44505
_cell_angle_alpha    63.5416
_cell_angle_beta     88.9962
_cell_angle_gamma    90.5039

_symmetry_space_group_name_H-M    "P 1"
_symmetry_int_tables_number       1

loop_
  _symmetry_equiv_pos_as_xyz
  'x, y, z'

loop_
  _atom_site_label
  _atom_site_occupancy
  _atom_site_fract_x
  _atom_site_fract_y
  _atom_site_fract_z
  _atom_site_thermal_displace_type
  _atom_site_B_iso_or_equiv
  _atom_site_type_symbol
  N1       1.0000 0.01036  0.94028  0.11153  Biso   1.000  N
  N2       1.0000 0.04026  0.78180  0.43812  Biso   1.000  N
  N3       1.0000 0.06928  0.96925  0.10761  Biso   1.000  N
  N4       1.0000 0.09808  0.85567  0.41965  Biso   1.000  N
  N5       1.0000 0.12693  0.06618  0.08617  Biso   1.000  N
  N6       1.0000 0.15604  0.97685  0.38774  Biso   1.000  N
  N7       1.0000 0.18465  0.19973  0.04912  Biso   1.000  N
  N8       1.0000 0.21369  0.12599  0.34952  Biso   1.000  N
  N9       1.0000 0.24208  0.35564  0.01190  Biso   1.000  N
  N10      1.0000 0.27133  0.27567  0.31506  Biso   1.000  N
  N11      1.0000 0.29985  0.49887  0.98179  Biso   1.000  N
  N12      1.0000 0.32893  0.41059  0.28592  Biso   1.000  N
  N13      1.0000 0.35761  0.62292  0.94769  Biso   1.000  N
  N14      1.0000 0.38681  0.52146  0.24765  Biso   1.000  N
  N15      1.0000 0.41559  0.72402  0.90802  Biso   1.000  N
  N16      1.0000 0.44458  0.60108  0.21274  Biso   1.000  N
  N17      1.0000 0.47366  0.78571  0.88104  Biso   1.000  N
  N18      1.0000 0.50330  0.62577  0.21127  Biso   1.000  N
  N19      1.0000 0.52584  0.19444  0.07900  Biso   1.000  N
  N20      1.0000 0.55532  0.03077  0.41039  Biso   1.000  N
  N21      1.0000 0.58461  0.19187  0.08086  Biso   1.000  N
  N22      1.0000 0.61331  0.01687  0.38955  Biso   1.000  N
  N23      1.0000 0.64250  0.15932  0.05990  Biso   1.000  N
  N24      1.0000 0.67128  0.96888  0.37421  Biso   1.000  N
  N25      1.0000 0.70043  0.08604  0.05238  Biso   1.000  N
  N26      1.0000 0.72883  0.87922  0.37405  Biso   1.000  N
  N27      1.0000 0.75820  0.97129  0.05998  Biso   1.000  N
  N28      1.0000 0.78635  0.75564  0.38306  Biso   1.000  N
  N29      1.0000 0.81574  0.82352  0.07049  Biso   1.000  N
  N30      1.0000 0.84348  0.60224  0.39774  Biso   1.000  N
  N31      1.0000 0.87310  0.66034  0.09078  Biso   1.000  N
  N32      1.0000 0.90087  0.43423  0.42215  Biso   1.000  N
  N33      1.0000 0.93002  0.48133  0.11921  Biso   1.000  N
  N34      1.0000 0.95833  0.28129  0.44620  Biso   1.000  N
  N35      1.0000 0.98875  0.43773  0.11250  Biso   1.000  N
