data_image0
_cell_length_a       27.5486
_cell_length_b       2.14746
_cell_length_c       2.47133
_cell_angle_alpha    65.8857
_cell_angle_beta     90.2606
_cell_angle_gamma    90.192

_symmetry_space_group_name_H-M    "P 1"
_symmetry_int_tables_number       1

loop_
  _symmetry_equiv_pos_as_xyz
  'x, y, z'

loop_
  _atom_site_label
  _atom_site_occupancy
  _atom_site_fract_x
  _atom_site_fract_y
  _atom_site_fract_z
  _atom_site_thermal_displace_type
  _atom_site_B_iso_or_equiv
  _atom_site_type_symbol
  N1       1.0000 0.01553  0.68931  0.12021  Biso   1.000  N
  N2       1.0000 0.05417  0.50716  0.48827  Biso   1.000  N
  N3       1.0000 0.08249  0.07689  0.33805  Biso   1.000  N
  N4       1.0000 0.12141  0.90879  0.67462  Biso   1.000  N
  N5       1.0000 0.15773  0.08258  0.34440  Biso   1.000  N
  N6       1.0000 0.19493  0.92501  0.66216  Biso   1.000  N
  N7       1.0000 0.23278  0.10102  0.31884  Biso   1.000  N
  N8       1.0000 0.26195  0.53838  0.45568  Biso   1.000  N
  N9       1.0000 0.29967  0.70884  0.12029  Biso   1.000  N
  N10      1.0000 0.33714  0.54365  0.44212  Biso   1.000  N
  N11      1.0000 0.37371  0.70834  0.12393  Biso   1.000  N
  N12      1.0000 0.41075  0.52609  0.46051  Biso   1.000  N
  N13      1.0000 0.44757  0.68350  0.14627  Biso   1.000  N
  N14      1.0000 0.48489  0.51469  0.47051  Biso   1.000  N
  N15      1.0000 0.52287  0.67532  0.14125  Biso   1.000  N
  N16      1.0000 0.55236  0.10878  0.27652  Biso   1.000  N
  N17      1.0000 0.58987  0.27310  0.93784  Biso   1.000  N
  N18      1.0000 0.62749  0.10666  0.25529  Biso   1.000  N
  N19      1.0000 0.66515  0.27650  0.91664  Biso   1.000  N
  N20      1.0000 0.69437  0.71461  0.05105  Biso   1.000  N
  N21      1.0000 0.73235  0.88796  0.71005  Biso   1.000  N
  N22      1.0000 0.76939  0.72302  0.03200  Biso   1.000  N
  N23      1.0000 0.80627  0.88930  0.70907  Biso   1.000  N
  N24      1.0000 0.84455  0.71948  0.04636  Biso   1.000  N
  N25      1.0000 0.87377  0.28357  0.91028  Biso   1.000  N
  N26      1.0000 0.91144  0.11679  0.25080  Biso   1.000  N
  N27      1.0000 0.94866  0.28934  0.92869  Biso   1.000  N
  N28      1.0000 0.98673  0.12133  0.26829  Biso   1.000  N
