data_image0
_cell_length_a       25.5085
_cell_length_b       2.14099
_cell_length_c       2.48101
_cell_angle_alpha    65.7337
_cell_angle_beta     89.9484
_cell_angle_gamma    89.8938

_symmetry_space_group_name_H-M    "P 1"
_symmetry_int_tables_number       1

loop_
  _symmetry_equiv_pos_as_xyz
  'x, y, z'

loop_
  _atom_site_label
  _atom_site_occupancy
  _atom_site_fract_x
  _atom_site_fract_y
  _atom_site_fract_z
  _atom_site_thermal_displace_type
  _atom_site_B_iso_or_equiv
  _atom_site_type_symbol
  N1       1.0000 0.01788  0.56840  0.38040  Biso   1.000  N
  N2       1.0000 0.05936  0.40543  0.71219  Biso   1.000  N
  N3       1.0000 0.10102  0.56268  0.38191  Biso   1.000  N
  N4       1.0000 0.13197  0.00132  0.50978  Biso   1.000  N
  N5       1.0000 0.17303  0.16594  0.16851  Biso   1.000  N
  N6       1.0000 0.21278  0.00103  0.49230  Biso   1.000  N
  N7       1.0000 0.25443  0.16621  0.15560  Biso   1.000  N
  N8       1.0000 0.28513  0.59647  0.30460  Biso   1.000  N
  N9       1.0000 0.32705  0.77827  0.93746  Biso   1.000  N
  N10      1.0000 0.35762  0.20878  0.08556  Biso   1.000  N
  N11      1.0000 0.39945  0.37621  0.74810  Biso   1.000  N
  N12      1.0000 0.43908  0.20752  0.07241  Biso   1.000  N
  N13      1.0000 0.47896  0.37340  0.74756  Biso   1.000  N
  N14      1.0000 0.51866  0.20146  0.07610  Biso   1.000  N
  N15      1.0000 0.55871  0.36370  0.75812  Biso   1.000  N
  N16      1.0000 0.59991  0.19281  0.09778  Biso   1.000  N
  N17      1.0000 0.63107  0.75593  0.96553  Biso   1.000  N
  N18      1.0000 0.67223  0.59009  0.29894  Biso   1.000  N
  N19      1.0000 0.71230  0.75451  0.97612  Biso   1.000  N
  N20      1.0000 0.75345  0.59565  0.30546  Biso   1.000  N
  N21      1.0000 0.78513  0.16138  0.17109  Biso   1.000  N
  N22      1.0000 0.82597  0.99978  0.50358  Biso   1.000  N
  N23      1.0000 0.86630  0.17183  0.17540  Biso   1.000  N
  N24      1.0000 0.90573  0.01176  0.49428  Biso   1.000  N
  N25      1.0000 0.94598  0.18122  0.17038  Biso   1.000  N
  N26      1.0000 0.98677  0.00822  0.51083  Biso   1.000  N
