data_image0
_cell_length_a       35.0553
_cell_length_b       2.20139
_cell_length_c       2.43686
_cell_angle_alpha    63.1316
_cell_angle_beta     87.9444
_cell_angle_gamma    85.5469

_symmetry_space_group_name_H-M    "P 1"
_symmetry_int_tables_number       1

loop_
  _symmetry_equiv_pos_as_xyz
  'x, y, z'

loop_
  _atom_site_label
  _atom_site_occupancy
  _atom_site_fract_x
  _atom_site_fract_y
  _atom_site_fract_z
  _atom_site_thermal_displace_type
  _atom_site_B_iso_or_equiv
  _atom_site_type_symbol
  N1       1.0000 0.01470  0.01649  0.05681  Biso   1.000  N
  N2       1.0000 0.04404  0.82054  0.38137  Biso   1.000  N
  N3       1.0000 0.07356  0.95554  0.06087  Biso   1.000  N
  N4       1.0000 0.10293  0.77608  0.38421  Biso   1.000  N
  N5       1.0000 0.13238  0.92546  0.06269  Biso   1.000  N
  N6       1.0000 0.16176  0.75714  0.38463  Biso   1.000  N
  N7       1.0000 0.19114  0.91258  0.06184  Biso   1.000  N
  N8       1.0000 0.22058  0.74419  0.38234  Biso   1.000  N
  N9       1.0000 0.24992  0.89265  0.05781  Biso   1.000  N
  N10      1.0000 0.27945  0.71178  0.37693  Biso   1.000  N
  N11      1.0000 0.30876  0.84570  0.05082  Biso   1.000  N
  N12      1.0000 0.33834  0.65079  0.36888  Biso   1.000  N
  N13      1.0000 0.36763  0.77520  0.04207  Biso   1.000  N
  N14      1.0000 0.39722  0.57659  0.35971  Biso   1.000  N
  N15      1.0000 0.42650  0.70418  0.03276  Biso   1.000  N
  N16      1.0000 0.45608  0.51559  0.35065  Biso   1.000  N
  N17      1.0000 0.48537  0.65787  0.02426  Biso   1.000  N
  N18      1.0000 0.51489  0.48729  0.34302  Biso   1.000  N
  N19      1.0000 0.54418  0.64604  0.01820  Biso   1.000  N
  N20      1.0000 0.57359  0.48790  0.33823  Biso   1.000  N
  N21      1.0000 0.60292  0.65202  0.01528  Biso   1.000  N
  N22      1.0000 0.63229  0.49096  0.33707  Biso   1.000  N
  N23      1.0000 0.66171  0.64578  0.01548  Biso   1.000  N
  N24      1.0000 0.69107  0.47019  0.33870  Biso   1.000  N
  N25      1.0000 0.72059  0.60749  0.01799  Biso   1.000  N
  N26      1.0000 0.74993  0.41253  0.34239  Biso   1.000  N
  N27      1.0000 0.77950  0.52814  0.02293  Biso   1.000  N
  N28      1.0000 0.80877  0.31141  0.34870  Biso   1.000  N
  N29      1.0000 0.83835  0.40472  0.03091  Biso   1.000  N
  N30      1.0000 0.86752  0.17180  0.35765  Biso   1.000  N
  N31      1.0000 0.89709  0.25509  0.04087  Biso   1.000  N
  N32      1.0000 0.92627  0.02266  0.36772  Biso   1.000  N
  N33      1.0000 0.95586  0.11680  0.05012  Biso   1.000  N
  N34      1.0000 0.98512  0.90080  0.37609  Biso   1.000  N
