data_image0
_cell_length_a       23.4746
_cell_length_b       2.13803
_cell_length_c       2.48432
_cell_angle_alpha    65.8396
_cell_angle_beta     89.9027
_cell_angle_gamma    89.7901

_symmetry_space_group_name_H-M    "P 1"
_symmetry_int_tables_number       1

loop_
  _symmetry_equiv_pos_as_xyz
  'x, y, z'

loop_
  _atom_site_label
  _atom_site_occupancy
  _atom_site_fract_x
  _atom_site_fract_y
  _atom_site_fract_z
  _atom_site_thermal_displace_type
  _atom_site_B_iso_or_equiv
  _atom_site_type_symbol
  N1       1.0000 0.01434  0.68330  0.10113  Biso   1.000  N
  N2       1.0000 0.05899  0.52450  0.42984  Biso   1.000  N
  N3       1.0000 0.10286  0.70347  0.10063  Biso   1.000  N
  N4       1.0000 0.14549  0.55632  0.41787  Biso   1.000  N
  N5       1.0000 0.18944  0.73359  0.09091  Biso   1.000  N
  N6       1.0000 0.23383  0.56830  0.42419  Biso   1.000  N
  N7       1.0000 0.26802  0.13078  0.28703  Biso   1.000  N
  N8       1.0000 0.31276  0.95610  0.62686  Biso   1.000  N
  N9       1.0000 0.35610  0.11220  0.30762  Biso   1.000  N
  N10      1.0000 0.39922  0.93929  0.63362  Biso   1.000  N
  N11      1.0000 0.44440  0.10023  0.30137  Biso   1.000  N
  N12      1.0000 0.47840  0.53410  0.43946  Biso   1.000  N
  N13      1.0000 0.52292  0.69944  0.09729  Biso   1.000  N
  N14      1.0000 0.56614  0.53333  0.41993  Biso   1.000  N
  N15      1.0000 0.61136  0.69851  0.08029  Biso   1.000  N
  N16      1.0000 0.64463  0.12807  0.22929  Biso   1.000  N
  N17      1.0000 0.69015  0.30798  0.86243  Biso   1.000  N
  N18      1.0000 0.72327  0.73768  0.01089  Biso   1.000  N
  N19      1.0000 0.76892  0.89884  0.67911  Biso   1.000  N
  N20      1.0000 0.81366  0.73222  0.01526  Biso   1.000  N
  N21      1.0000 0.84735  0.29227  0.88400  Biso   1.000  N
  N22      1.0000 0.89209  0.12449  0.22278  Biso   1.000  N
  N23      1.0000 0.93548  0.28489  0.90094  Biso   1.000  N
  N24      1.0000 0.98017  0.12007  0.23724  Biso   1.000  N
