data_image0
_cell_length_a       31.0905
_cell_length_b       2.16057
_cell_length_c       2.46405
_cell_angle_alpha    63.9211
_cell_angle_beta     92.6427
_cell_angle_gamma    88.0774

_symmetry_space_group_name_H-M    "P 1"
_symmetry_int_tables_number       1

loop_
  _symmetry_equiv_pos_as_xyz
  'x, y, z'

loop_
  _atom_site_label
  _atom_site_occupancy
  _atom_site_fract_x
  _atom_site_fract_y
  _atom_site_fract_z
  _atom_site_thermal_displace_type
  _atom_site_B_iso_or_equiv
  _atom_site_type_symbol
  N1       1.0000 0.01387  0.71114  0.06835  Biso   1.000  N
  N2       1.0000 0.04856  0.51296  0.43633  Biso   1.000  N
  N3       1.0000 0.08114  0.65042  0.13792  Biso   1.000  N
  N4       1.0000 0.11447  0.46699  0.48348  Biso   1.000  N
  N5       1.0000 0.14835  0.60980  0.16807  Biso   1.000  N
  N6       1.0000 0.17426  0.02046  0.32222  Biso   1.000  N
  N7       1.0000 0.20807  0.15605  0.01760  Biso   1.000  N
  N8       1.0000 0.24141  0.96153  0.36963  Biso   1.000  N
  N9       1.0000 0.27453  0.07407  0.09757  Biso   1.000  N
  N10      1.0000 0.30774  0.87565  0.45501  Biso   1.000  N
  N11      1.0000 0.34187  0.00371  0.16270  Biso   1.000  N
  N12      1.0000 0.36784  0.41222  0.32007  Biso   1.000  N
  N13      1.0000 0.40189  0.54750  0.01604  Biso   1.000  N
  N14      1.0000 0.43512  0.35644  0.36823  Biso   1.000  N
  N15      1.0000 0.46907  0.49394  0.05984  Biso   1.000  N
  N16      1.0000 0.49494  0.90427  0.21386  Biso   1.000  N
  N17      1.0000 0.52903  0.03685  0.91466  Biso   1.000  N
  N18      1.0000 0.56219  0.84272  0.26996  Biso   1.000  N
  N19      1.0000 0.59553  0.96334  0.99382  Biso   1.000  N
  N20      1.0000 0.62865  0.76837  0.35061  Biso   1.000  N
  N21      1.0000 0.66175  0.89309  0.06610  Biso   1.000  N
  N22      1.0000 0.69525  0.70335  0.41189  Biso   1.000  N
  N23      1.0000 0.72892  0.84117  0.10330  Biso   1.000  N
  N24      1.0000 0.75501  0.25406  0.25115  Biso   1.000  N
  N25      1.0000 0.78854  0.39195  0.94143  Biso   1.000  N
  N26      1.0000 0.82238  0.20334  0.28212  Biso   1.000  N
  N27      1.0000 0.85503  0.33118  0.98880  Biso   1.000  N
  N28      1.0000 0.88889  0.14246  0.32931  Biso   1.000  N
  N29      1.0000 0.92146  0.27311  0.03406  Biso   1.000  N
  N30      1.0000 0.95527  0.08607  0.37476  Biso   1.000  N
  N31      1.0000 0.98898  0.22428  0.06612  Biso   1.000  N
