data_image0
_cell_length_a       36.4971
_cell_length_b       2.25055
_cell_length_c       2.43608
_cell_angle_alpha    61.9688
_cell_angle_beta     90.3846
_cell_angle_gamma    89.6442

_symmetry_space_group_name_H-M    "P 1"
_symmetry_int_tables_number       1

loop_
  _symmetry_equiv_pos_as_xyz
  'x, y, z'

loop_
  _atom_site_label
  _atom_site_occupancy
  _atom_site_fract_x
  _atom_site_fract_y
  _atom_site_fract_z
  _atom_site_thermal_displace_type
  _atom_site_B_iso_or_equiv
  _atom_site_type_symbol
  N1       1.0000 0.01284  0.80464  0.11757  Biso   1.000  N
  N2       1.0000 0.04071  0.64329  0.45891  Biso   1.000  N
  N3       1.0000 0.06891  0.77996  0.13834  Biso   1.000  N
  N4       1.0000 0.09744  0.64493  0.46069  Biso   1.000  N
  N5       1.0000 0.12472  0.82645  0.11256  Biso   1.000  N
  N6       1.0000 0.15170  0.97888  0.32846  Biso   1.000  N
  N7       1.0000 0.17882  0.17165  0.97838  Biso   1.000  N
  N8       1.0000 0.20746  0.05803  0.30043  Biso   1.000  N
  N9       1.0000 0.23531  0.22585  0.97880  Biso   1.000  N
  N10      1.0000 0.26350  0.04901  0.31629  Biso   1.000  N
  N11      1.0000 0.29169  0.17298  0.00306  Biso   1.000  N
  N12      1.0000 0.31952  0.96273  0.34129  Biso   1.000  N
  N13      1.0000 0.34775  0.06862  0.02673  Biso   1.000  N
  N14      1.0000 0.37559  0.84934  0.36115  Biso   1.000  N
  N15      1.0000 0.40367  0.94779  0.04555  Biso   1.000  N
  N16      1.0000 0.43157  0.72952  0.38060  Biso   1.000  N
  N17      1.0000 0.45970  0.83399  0.06727  Biso   1.000  N
  N18      1.0000 0.48780  0.63158  0.40684  Biso   1.000  N
  N19      1.0000 0.51576  0.77143  0.09136  Biso   1.000  N
  N20      1.0000 0.54430  0.61524  0.42338  Biso   1.000  N
  N21      1.0000 0.57253  0.75627  0.09192  Biso   1.000  N
  N22      1.0000 0.59672  0.04826  0.24571  Biso   1.000  N
  N23      1.0000 0.62556  0.14010  0.93377  Biso   1.000  N
  N24      1.0000 0.65447  0.03980  0.25347  Biso   1.000  N
  N25      1.0000 0.67892  0.75065  0.10507  Biso   1.000  N
  N26      1.0000 0.70711  0.60146  0.45064  Biso   1.000  N
  N27      1.0000 0.73545  0.75428  0.13151  Biso   1.000  N
  N28      1.0000 0.76390  0.63516  0.45151  Biso   1.000  N
  N29      1.0000 0.79111  0.82673  0.09886  Biso   1.000  N
  N30      1.0000 0.81850  0.95282  0.32344  Biso   1.000  N
  N31      1.0000 0.84545  0.15144  0.96856  Biso   1.000  N
  N32      1.0000 0.87423  0.04750  0.28290  Biso   1.000  N
  N33      1.0000 0.90207  0.21811  0.95588  Biso   1.000  N
  N34      1.0000 0.93022  0.05206  0.28451  Biso   1.000  N
  N35      1.0000 0.95871  0.16892  0.96811  Biso   1.000  N
  N36      1.0000 0.98628  0.99055  0.31648  Biso   1.000  N
