data_image0
_cell_length_a       34.6005
_cell_length_b       2.15938
_cell_length_c       2.4697
_cell_angle_alpha    65.5324
_cell_angle_beta     87.8874
_cell_angle_gamma    90.0427

_symmetry_space_group_name_H-M    "P 1"
_symmetry_int_tables_number       1

loop_
  _symmetry_equiv_pos_as_xyz
  'x, y, z'

loop_
  _atom_site_label
  _atom_site_occupancy
  _atom_site_fract_x
  _atom_site_fract_y
  _atom_site_fract_z
  _atom_site_thermal_displace_type
  _atom_site_B_iso_or_equiv
  _atom_site_type_symbol
  N1       1.0000 0.01178  0.77444  0.95331  Biso   1.000  N
  N2       1.0000 0.04318  0.59762  0.30379  Biso   1.000  N
  N3       1.0000 0.06564  0.17235  0.13892  Biso   1.000  N
  N4       1.0000 0.09634  0.01206  0.45248  Biso   1.000  N
  N5       1.0000 0.12559  0.19261  0.10431  Biso   1.000  N
  N6       1.0000 0.15494  0.04221  0.40174  Biso   1.000  N
  N7       1.0000 0.18437  0.23182  0.04738  Biso   1.000  N
  N8       1.0000 0.21360  0.08125  0.34785  Biso   1.000  N
  N9       1.0000 0.24326  0.25953  0.00806  Biso   1.000  N
  N10      1.0000 0.27338  0.10079  0.32723  Biso   1.000  N
  N11      1.0000 0.29652  0.66848  0.18285  Biso   1.000  N
  N12      1.0000 0.32660  0.50448  0.50920  Biso   1.000  N
  N13      1.0000 0.35633  0.67179  0.17834  Biso   1.000  N
  N14      1.0000 0.38539  0.50530  0.49617  Biso   1.000  N
  N15      1.0000 0.41493  0.67559  0.15741  Biso   1.000  N
  N16      1.0000 0.44422  0.51632  0.46503  Biso   1.000  N
  N17      1.0000 0.47473  0.69226  0.11203  Biso   1.000  N
  N18      1.0000 0.49761  0.13545  0.23789  Biso   1.000  N
  N19      1.0000 0.52824  0.31087  0.88812  Biso   1.000  N
  N20      1.0000 0.55728  0.14670  0.20068  Biso   1.000  N
  N21      1.0000 0.58688  0.31236  0.86852  Biso   1.000  N
  N22      1.0000 0.61690  0.14349  0.19680  Biso   1.000  N
  N23      1.0000 0.64009  0.70996  0.05246  Biso   1.000  N
  N24      1.0000 0.67005  0.54658  0.37519  Biso   1.000  N
  N25      1.0000 0.69990  0.72195  0.03759  Biso   1.000  N
  N26      1.0000 0.72890  0.56788  0.34141  Biso   1.000  N
  N27      1.0000 0.75860  0.75720  0.98919  Biso   1.000  N
  N28      1.0000 0.78769  0.60489  0.29035  Biso   1.000  N
  N29      1.0000 0.81737  0.78349  0.94741  Biso   1.000  N
  N30      1.0000 0.84755  0.62505  0.26171  Biso   1.000  N
  N31      1.0000 0.87074  0.19716  0.10590  Biso   1.000  N
  N32      1.0000 0.90116  0.03641  0.42181  Biso   1.000  N
  N33      1.0000 0.93035  0.21232  0.07583  Biso   1.000  N
  N34      1.0000 0.95970  0.05882  0.37850  Biso   1.000  N
  N35      1.0000 0.99020  0.24303  0.01953  Biso   1.000  N
