data_image0
_cell_length_a       27.4975
_cell_length_b       2.15082
_cell_length_c       2.4773
_cell_angle_alpha    65.6579
_cell_angle_beta     88.0937
_cell_angle_gamma    89.9933

_symmetry_space_group_name_H-M    "P 1"
_symmetry_int_tables_number       1

loop_
  _symmetry_equiv_pos_as_xyz
  'x, y, z'

loop_
  _atom_site_label
  _atom_site_occupancy
  _atom_site_fract_x
  _atom_site_fract_y
  _atom_site_fract_z
  _atom_site_thermal_displace_type
  _atom_site_B_iso_or_equiv
  _atom_site_type_symbol
  N1       1.0000 0.01861  0.68354  0.10449  Biso   1.000  N
  N2       1.0000 0.05701  0.53155  0.41603  Biso   1.000  N
  N3       1.0000 0.09531  0.70270  0.06656  Biso   1.000  N
  N4       1.0000 0.12397  0.15051  0.18026  Biso   1.000  N
  N5       1.0000 0.16197  0.32591  0.82586  Biso   1.000  N
  N6       1.0000 0.20062  0.17379  0.13545  Biso   1.000  N
  N7       1.0000 0.22916  0.74561  0.97697  Biso   1.000  N
  N8       1.0000 0.26763  0.57487  0.31887  Biso   1.000  N
  N9       1.0000 0.29646  0.14650  0.15990  Biso   1.000  N
  N10      1.0000 0.33461  0.99312  0.47119  Biso   1.000  N
  N11      1.0000 0.37183  0.18313  0.12587  Biso   1.000  N
  N12      1.0000 0.40815  0.04552  0.42762  Biso   1.000  N
  N13      1.0000 0.44564  0.23325  0.08667  Biso   1.000  N
  N14      1.0000 0.48334  0.07920  0.39950  Biso   1.000  N
  N15      1.0000 0.51267  0.64583  0.25386  Biso   1.000  N
  N16      1.0000 0.55056  0.48097  0.57778  Biso   1.000  N
  N17      1.0000 0.58774  0.64897  0.24310  Biso   1.000  N
  N18      1.0000 0.62441  0.48699  0.55284  Biso   1.000  N
  N19      1.0000 0.66289  0.66226  0.20125  Biso   1.000  N
  N20      1.0000 0.69177  0.10507  0.32566  Biso   1.000  N
  N21      1.0000 0.72986  0.28094  0.97156  Biso   1.000  N
  N22      1.0000 0.76698  0.11695  0.27451  Biso   1.000  N
  N23      1.0000 0.80384  0.28453  0.93591  Biso   1.000  N
  N24      1.0000 0.84060  0.11568  0.24822  Biso   1.000  N
  N25      1.0000 0.87823  0.28299  0.92069  Biso   1.000  N
  N26      1.0000 0.91442  0.11621  0.24067  Biso   1.000  N
  N27      1.0000 0.95203  0.28438  0.91460  Biso   1.000  N
  N28      1.0000 0.98967  0.11903  0.24412  Biso   1.000  N
