data_image0
_cell_length_a       38.6117
_cell_length_b       2.15624
_cell_length_c       2.45845
_cell_angle_alpha    66.0031
_cell_angle_beta     92.6463
_cell_angle_gamma    88.4308

_symmetry_space_group_name_H-M    "P 1"
_symmetry_int_tables_number       1

loop_
  _symmetry_equiv_pos_as_xyz
  'x, y, z'

loop_
  _atom_site_label
  _atom_site_occupancy
  _atom_site_fract_x
  _atom_site_fract_y
  _atom_site_fract_z
  _atom_site_thermal_displace_type
  _atom_site_B_iso_or_equiv
  _atom_site_type_symbol
  N1       1.0000 0.00921  0.78713  0.91684  Biso   1.000  N
  N2       1.0000 0.03708  0.59446  0.27069  Biso   1.000  N
  N3       1.0000 0.06306  0.73854  0.96305  Biso   1.000  N
  N4       1.0000 0.08974  0.55045  0.29899  Biso   1.000  N
  N5       1.0000 0.11587  0.70665  0.98395  Biso   1.000  N
  N6       1.0000 0.14238  0.51774  0.32322  Biso   1.000  N
  N7       1.0000 0.16868  0.66186  0.02098  Biso   1.000  N
  N8       1.0000 0.19601  0.47147  0.37838  Biso   1.000  N
  N9       1.0000 0.21671  0.01951  0.25670  Biso   1.000  N
  N10      1.0000 0.24420  0.82886  0.61805  Biso   1.000  N
  N11      1.0000 0.27030  0.97343  0.31495  Biso   1.000  N
  N12      1.0000 0.29689  0.78822  0.65930  Biso   1.000  N
  N13      1.0000 0.32392  0.93606  0.34238  Biso   1.000  N
  N14      1.0000 0.34476  0.35694  0.49307  Biso   1.000  N
  N15      1.0000 0.37159  0.50061  0.17977  Biso   1.000  N
  N16      1.0000 0.39858  0.31388  0.52262  Biso   1.000  N
  N17      1.0000 0.42520  0.45248  0.20967  Biso   1.000  N
  N18      1.0000 0.44655  0.86635  0.36322  Biso   1.000  N
  N19      1.0000 0.47336  0.99883  0.05848  Biso   1.000  N
  N20      1.0000 0.50016  0.80784  0.40679  Biso   1.000  N
  N21      1.0000 0.52729  0.93776  0.10564  Biso   1.000  N
  N22      1.0000 0.54813  0.35365  0.25980  Biso   1.000  N
  N23      1.0000 0.57527  0.48935  0.95653  Biso   1.000  N
  N24      1.0000 0.60166  0.29594  0.31002  Biso   1.000  N
  N25      1.0000 0.62795  0.43428  0.01701  Biso   1.000  N
  N26      1.0000 0.65427  0.23997  0.37142  Biso   1.000  N
  N27      1.0000 0.68144  0.37841  0.06812  Biso   1.000  N
  N28      1.0000 0.70219  0.79913  0.22229  Biso   1.000  N
  N29      1.0000 0.72937  0.93431  0.92066  Biso   1.000  N
  N30      1.0000 0.75580  0.73673  0.27505  Biso   1.000  N
  N31      1.0000 0.78196  0.86984  0.98022  Biso   1.000  N
  N32      1.0000 0.80846  0.67267  0.33199  Biso   1.000  N
  N33      1.0000 0.83550  0.81066  0.02493  Biso   1.000  N
  N34      1.0000 0.85630  0.23474  0.17077  Biso   1.000  N
  N35      1.0000 0.88303  0.37833  0.85397  Biso   1.000  N
  N36      1.0000 0.90983  0.18978  0.19408  Biso   1.000  N
  N37      1.0000 0.93562  0.33576  0.88559  Biso   1.000  N
  N38      1.0000 0.96235  0.15225  0.22788  Biso   1.000  N
  N39      1.0000 0.98931  0.29765  0.91794  Biso   1.000  N
