data_image0
_cell_length_a       33.6828
_cell_length_b       2.15173
_cell_length_c       2.4632
_cell_angle_alpha    65.7931
_cell_angle_beta     92.1916
_cell_angle_gamma    90.631

_symmetry_space_group_name_H-M    "P 1"
_symmetry_int_tables_number       1

loop_
  _symmetry_equiv_pos_as_xyz
  'x, y, z'

loop_
  _atom_site_label
  _atom_site_occupancy
  _atom_site_fract_x
  _atom_site_fract_y
  _atom_site_fract_z
  _atom_site_thermal_displace_type
  _atom_site_B_iso_or_equiv
  _atom_site_type_symbol
  N1       1.0000 0.01224  0.60450  0.31391  Biso   1.000  N
  N2       1.0000 0.04386  0.43636  0.66141  Biso   1.000  N
  N3       1.0000 0.07375  0.59954  0.34690  Biso   1.000  N
  N4       1.0000 0.10421  0.43293  0.68065  Biso   1.000  N
  N5       1.0000 0.13512  0.60245  0.35130  Biso   1.000  N
  N6       1.0000 0.15899  0.04163  0.49293  Biso   1.000  N
  N7       1.0000 0.18971  0.20492  0.17060  Biso   1.000  N
  N8       1.0000 0.22037  0.02766  0.50567  Biso   1.000  N
  N9       1.0000 0.24995  0.17657  0.19522  Biso   1.000  N
  N10      1.0000 0.28060  0.99837  0.53424  Biso   1.000  N
  N11      1.0000 0.31144  0.14936  0.22018  Biso   1.000  N
  N12      1.0000 0.33558  0.57843  0.36554  Biso   1.000  N
  N13      1.0000 0.36656  0.72944  0.05043  Biso   1.000  N
  N14      1.0000 0.39711  0.55921  0.38963  Biso   1.000  N
  N15      1.0000 0.42818  0.70928  0.07614  Biso   1.000  N
  N16      1.0000 0.45224  0.13838  0.22322  Biso   1.000  N
  N17      1.0000 0.48317  0.29094  0.90926  Biso   1.000  N
  N18      1.0000 0.51365  0.10805  0.25160  Biso   1.000  N
  N19      1.0000 0.54346  0.25199  0.94563  Biso   1.000  N
  N20      1.0000 0.57386  0.06931  0.28715  Biso   1.000  N
  N21      1.0000 0.60485  0.22931  0.96761  Biso   1.000  N
  N22      1.0000 0.62857  0.66884  0.10877  Biso   1.000  N
  N23      1.0000 0.65955  0.83502  0.78373  Biso   1.000  N
  N24      1.0000 0.69003  0.66467  0.11586  Biso   1.000  N
  N25      1.0000 0.71975  0.83074  0.79649  Biso   1.000  N
  N26      1.0000 0.75049  0.66226  0.12471  Biso   1.000  N
  N27      1.0000 0.78026  0.82995  0.80492  Biso   1.000  N
  N28      1.0000 0.81075  0.66280  0.13739  Biso   1.000  N
  N29      1.0000 0.84073  0.82507  0.82687  Biso   1.000  N
  N30      1.0000 0.87216  0.65843  0.17475  Biso   1.000  N
  N31      1.0000 0.89582  0.22038  0.04961  Biso   1.000  N
  N32      1.0000 0.92708  0.05175  0.40166  Biso   1.000  N
  N33      1.0000 0.95731  0.21013  0.09226  Biso   1.000  N
  N34      1.0000 0.98857  0.04131  0.44378  Biso   1.000  N
