data_image0
_cell_length_a       35.6954
_cell_length_b       2.19862
_cell_length_c       2.44001
_cell_angle_alpha    63.3061
_cell_angle_beta     88.77
_cell_angle_gamma    86.9727

_symmetry_space_group_name_H-M    "P 1"
_symmetry_int_tables_number       1

loop_
  _symmetry_equiv_pos_as_xyz
  'x, y, z'

loop_
  _atom_site_label
  _atom_site_occupancy
  _atom_site_fract_x
  _atom_site_fract_y
  _atom_site_fract_z
  _atom_site_thermal_displace_type
  _atom_site_B_iso_or_equiv
  _atom_site_type_symbol
  N1       1.0000 0.01106  0.68211  0.01261  Biso   1.000  N
  N2       1.0000 0.04070  0.47584  0.35069  Biso   1.000  N
  N3       1.0000 0.06969  0.57124  0.03423  Biso   1.000  N
  N4       1.0000 0.09794  0.32253  0.36282  Biso   1.000  N
  N5       1.0000 0.12692  0.39521  0.05154  Biso   1.000  N
  N6       1.0000 0.15541  0.14858  0.38141  Biso   1.000  N
  N7       1.0000 0.18430  0.22142  0.07180  Biso   1.000  N
  N8       1.0000 0.21275  0.98124  0.40346  Biso   1.000  N
  N9       1.0000 0.24169  0.06996  0.09186  Biso   1.000  N
  N10      1.0000 0.27044  0.85395  0.41965  Biso   1.000  N
  N11      1.0000 0.29931  0.97445  0.10283  Biso   1.000  N
  N12      1.0000 0.32816  0.79305  0.42565  Biso   1.000  N
  N13      1.0000 0.35696  0.94900  0.10323  Biso   1.000  N
  N14      1.0000 0.38587  0.80589  0.42193  Biso   1.000  N
  N15      1.0000 0.41427  0.99308  0.09619  Biso   1.000  N
  N16      1.0000 0.44328  0.87785  0.41007  Biso   1.000  N
  N17      1.0000 0.47149  0.08032  0.08182  Biso   1.000  N
  N18      1.0000 0.50043  0.98258  0.39192  Biso   1.000  N
  N19      1.0000 0.52847  0.19284  0.05979  Biso   1.000  N
  N20      1.0000 0.55749  0.09964  0.36624  Biso   1.000  N
  N21      1.0000 0.58556  0.30808  0.03325  Biso   1.000  N
  N22      1.0000 0.61453  0.21031  0.34126  Biso   1.000  N
  N23      1.0000 0.64270  0.41309  0.01112  Biso   1.000  N
  N24      1.0000 0.67176  0.29377  0.32484  Biso   1.000  N
  N25      1.0000 0.70011  0.48343  0.99808  Biso   1.000  N
  N26      1.0000 0.72909  0.34563  0.31362  Biso   1.000  N
  N27      1.0000 0.75781  0.51073  0.98794  Biso   1.000  N
  N28      1.0000 0.78671  0.34227  0.30649  Biso   1.000  N
  N29      1.0000 0.81554  0.48152  0.98261  Biso   1.000  N
  N30      1.0000 0.84431  0.28835  0.30416  Biso   1.000  N
  N31      1.0000 0.87333  0.40247  0.98624  Biso   1.000  N
  N32      1.0000 0.90204  0.19084  0.31333  Biso   1.000  N
  N33      1.0000 0.93089  0.28756  0.99938  Biso   1.000  N
  N34      1.0000 0.95949  0.07726  0.33045  Biso   1.000  N
  N35      1.0000 0.98950  0.20641  0.00251  Biso   1.000  N
