data_image0
_cell_length_a       25.528
_cell_length_b       2.14015
_cell_length_c       2.48024
_cell_angle_alpha    65.7674
_cell_angle_beta     87.7481
_cell_angle_gamma    90.0225

_symmetry_space_group_name_H-M    "P 1"
_symmetry_int_tables_number       1

loop_
  _symmetry_equiv_pos_as_xyz
  'x, y, z'

loop_
  _atom_site_label
  _atom_site_occupancy
  _atom_site_fract_x
  _atom_site_fract_y
  _atom_site_fract_z
  _atom_site_thermal_displace_type
  _atom_site_B_iso_or_equiv
  _atom_site_type_symbol
  N1       1.0000 0.01414  0.62086  0.24211  Biso   1.000  N
  N2       1.0000 0.05486  0.46722  0.55655  Biso   1.000  N
  N3       1.0000 0.09556  0.64903  0.21080  Biso   1.000  N
  N4       1.0000 0.13458  0.49744  0.51501  Biso   1.000  N
  N5       1.0000 0.17528  0.67572  0.17549  Biso   1.000  N
  N6       1.0000 0.21588  0.51475  0.49950  Biso   1.000  N
  N7       1.0000 0.24705  0.08133  0.35740  Biso   1.000  N
  N8       1.0000 0.28842  0.92889  0.67223  Biso   1.000  N
  N9       1.0000 0.33014  0.09652  0.32372  Biso   1.000  N
  N10      1.0000 0.36120  0.54016  0.43976  Biso   1.000  N
  N11      1.0000 0.40230  0.71483  0.08160  Biso   1.000  N
  N12      1.0000 0.44229  0.56239  0.38321  Biso   1.000  N
  N13      1.0000 0.48365  0.73678  0.02954  Biso   1.000  N
  N14      1.0000 0.51483  0.17948  0.14906  Biso   1.000  N
  N15      1.0000 0.55606  0.35674  0.79020  Biso   1.000  N
  N16      1.0000 0.59603  0.20035  0.09097  Biso   1.000  N
  N17      1.0000 0.63608  0.37427  0.74958  Biso   1.000  N
  N18      1.0000 0.67558  0.21154  0.06295  Biso   1.000  N
  N19      1.0000 0.71574  0.38374  0.72770  Biso   1.000  N
  N20      1.0000 0.75692  0.21868  0.05540  Biso   1.000  N
  N21      1.0000 0.78781  0.79149  0.89707  Biso   1.000  N
  N22      1.0000 0.82944  0.61745  0.24512  Biso   1.000  N
  N23      1.0000 0.86047  0.19054  0.08657  Biso   1.000  N
  N24      1.0000 0.90154  0.03119  0.40720  Biso   1.000  N
  N25      1.0000 0.94172  0.20565  0.06634  Biso   1.000  N
  N26      1.0000 0.98241  0.05299  0.38491  Biso   1.000  N
