data_image0
_cell_length_a       32.6043
_cell_length_b       2.15282
_cell_length_c       2.46333
_cell_angle_alpha    65.8868
_cell_angle_beta     89.2587
_cell_angle_gamma    89.9206

_symmetry_space_group_name_H-M    "P 1"
_symmetry_int_tables_number       1

loop_
  _symmetry_equiv_pos_as_xyz
  'x, y, z'

loop_
  _atom_site_label
  _atom_site_occupancy
  _atom_site_fract_x
  _atom_site_fract_y
  _atom_site_fract_z
  _atom_site_thermal_displace_type
  _atom_site_B_iso_or_equiv
  _atom_site_type_symbol
  N1       1.0000 0.01003  0.78169  0.90132  Biso   1.000  N
  N2       1.0000 0.04225  0.61220  0.23121  Biso   1.000  N
  N3       1.0000 0.07352  0.77291  0.90623  Biso   1.000  N
  N4       1.0000 0.10450  0.60684  0.22505  Biso   1.000  N
  N5       1.0000 0.13563  0.77629  0.89301  Biso   1.000  N
  N6       1.0000 0.16702  0.61887  0.20341  Biso   1.000  N
  N7       1.0000 0.19800  0.79405  0.86813  Biso   1.000  N
  N8       1.0000 0.22919  0.63758  0.18121  Biso   1.000  N
  N9       1.0000 0.26036  0.80819  0.85155  Biso   1.000  N
  N10      1.0000 0.29260  0.65184  0.17530  Biso   1.000  N
  N11      1.0000 0.31711  0.22132  0.03455  Biso   1.000  N
  N12      1.0000 0.34946  0.06950  0.35614  Biso   1.000  N
  N13      1.0000 0.38069  0.23819  0.02363  Biso   1.000  N
  N14      1.0000 0.41294  0.08716  0.34447  Biso   1.000  N
  N15      1.0000 0.43774  0.65680  0.20362  Biso   1.000  N
  N16      1.0000 0.46968  0.50020  0.52926  Biso   1.000  N
  N17      1.0000 0.50111  0.67292  0.19942  Biso   1.000  N
  N18      1.0000 0.53196  0.51491  0.51651  Biso   1.000  N
  N19      1.0000 0.56331  0.68627  0.18737  Biso   1.000  N
  N20      1.0000 0.59525  0.52327  0.51668  Biso   1.000  N
  N21      1.0000 0.61966  0.08612  0.38176  Biso   1.000  N
  N22      1.0000 0.65200  0.93057  0.70584  Biso   1.000  N
  N23      1.0000 0.68454  0.08752  0.36961  Biso   1.000  N
  N24      1.0000 0.70875  0.52687  0.49457  Biso   1.000  N
  N25      1.0000 0.74096  0.68941  0.15192  Biso   1.000  N
  N26      1.0000 0.77217  0.52813  0.47022  Biso   1.000  N
  N27      1.0000 0.80435  0.69060  0.12834  Biso   1.000  N
  N28      1.0000 0.82883  0.13056  0.25399  Biso   1.000  N
  N29      1.0000 0.86083  0.29416  0.91397  Biso   1.000  N
  N30      1.0000 0.89200  0.12605  0.23019  Biso   1.000  N
  N31      1.0000 0.92312  0.28635  0.90381  Biso   1.000  N
  N32      1.0000 0.95391  0.12009  0.22699  Biso   1.000  N
  N33      1.0000 0.98655  0.28508  0.89572  Biso   1.000  N
