data_image0
_cell_length_a       30.7276
_cell_length_b       2.18336
_cell_length_c       2.44784
_cell_angle_alpha    63.4988
_cell_angle_beta     91.0675
_cell_angle_gamma    96.7811

_symmetry_space_group_name_H-M    "P 1"
_symmetry_int_tables_number       1

loop_
  _symmetry_equiv_pos_as_xyz
  'x, y, z'

loop_
  _atom_site_label
  _atom_site_occupancy
  _atom_site_fract_x
  _atom_site_fract_y
  _atom_site_fract_z
  _atom_site_thermal_displace_type
  _atom_site_B_iso_or_equiv
  _atom_site_type_symbol
  N1       1.0000 0.01484  0.79449  0.09504  Biso   1.000  N
  N2       1.0000 0.04938  0.69805  0.41175  Biso   1.000  N
  N3       1.0000 0.08329  0.93828  0.06822  Biso   1.000  N
  N4       1.0000 0.11689  0.87795  0.35683  Biso   1.000  N
  N5       1.0000 0.15076  0.11932  0.01280  Biso   1.000  N
  N6       1.0000 0.18534  0.02410  0.32872  Biso   1.000  N
  N7       1.0000 0.21152  0.63884  0.18746  Biso   1.000  N
  N8       1.0000 0.24623  0.54140  0.50675  Biso   1.000  N
  N9       1.0000 0.27996  0.78144  0.16569  Biso   1.000  N
  N10      1.0000 0.31352  0.71214  0.46587  Biso   1.000  N
  N11      1.0000 0.34733  0.96561  0.12391  Biso   1.000  N
  N12      1.0000 0.38102  0.90413  0.42469  Biso   1.000  N
  N13      1.0000 0.41471  0.16352  0.08782  Biso   1.000  N
  N14      1.0000 0.44824  0.09987  0.39577  Biso   1.000  N
  N15      1.0000 0.48204  0.35880  0.06465  Biso   1.000  N
  N16      1.0000 0.51557  0.29124  0.37467  Biso   1.000  N
  N17      1.0000 0.54941  0.54785  0.04243  Biso   1.000  N
  N18      1.0000 0.58276  0.47376  0.35074  Biso   1.000  N
  N19      1.0000 0.61688  0.71736  0.01681  Biso   1.000  N
  N20      1.0000 0.65018  0.62944  0.32706  Biso   1.000  N
  N21      1.0000 0.68425  0.85878  0.99818  Biso   1.000  N
  N22      1.0000 0.71764  0.75893  0.31303  Biso   1.000  N
  N23      1.0000 0.75178  0.97483  0.98748  Biso   1.000  N
  N24      1.0000 0.78510  0.86615  0.30211  Biso   1.000  N
  N25      1.0000 0.81916  0.07797  0.97163  Biso   1.000  N
  N26      1.0000 0.85263  0.96791  0.27920  Biso   1.000  N
  N27      1.0000 0.88676  0.18113  0.94375  Biso   1.000  N
  N28      1.0000 0.92011  0.07010  0.24959  Biso   1.000  N
  N29      1.0000 0.95404  0.28583  0.91255  Biso   1.000  N
  N30      1.0000 0.98863  0.18079  0.23481  Biso   1.000  N
