data_image0
_cell_length_a       36.5962
_cell_length_b       2.18123
_cell_length_c       2.45231
_cell_angle_alpha    63.5834
_cell_angle_beta     91.6029
_cell_angle_gamma    94.9534

_symmetry_space_group_name_H-M    "P 1"
_symmetry_int_tables_number       1

loop_
  _symmetry_equiv_pos_as_xyz
  'x, y, z'

loop_
  _atom_site_label
  _atom_site_occupancy
  _atom_site_fract_x
  _atom_site_fract_y
  _atom_site_fract_z
  _atom_site_thermal_displace_type
  _atom_site_B_iso_or_equiv
  _atom_site_type_symbol
  N1       1.0000 0.01320  0.63778  0.00338  Biso   1.000  N
  N2       1.0000 0.04230  0.49659  0.36946  Biso   1.000  N
  N3       1.0000 0.06414  0.10194  0.22196  Biso   1.000  N
  N4       1.0000 0.09299  0.97432  0.55596  Biso   1.000  N
  N5       1.0000 0.12122  0.16913  0.22340  Biso   1.000  N
  N6       1.0000 0.14936  0.03074  0.53046  Biso   1.000  N
  N7       1.0000 0.17747  0.21307  0.20162  Biso   1.000  N
  N8       1.0000 0.20586  0.07045  0.51512  Biso   1.000  N
  N9       1.0000 0.23397  0.24853  0.19401  Biso   1.000  N
  N10      1.0000 0.26214  0.10654  0.51307  Biso   1.000  N
  N11      1.0000 0.29040  0.29198  0.19030  Biso   1.000  N
  N12      1.0000 0.31863  0.16222  0.50180  Biso   1.000  N
  N13      1.0000 0.34688  0.35816  0.17362  Biso   1.000  N
  N14      1.0000 0.37496  0.23607  0.48741  Biso   1.000  N
  N15      1.0000 0.40338  0.43251  0.16592  Biso   1.000  N
  N16      1.0000 0.43151  0.31012  0.48719  Biso   1.000  N
  N17      1.0000 0.45972  0.50295  0.17055  Biso   1.000  N
  N18      1.0000 0.48797  0.38230  0.49005  Biso   1.000  N
  N19      1.0000 0.51688  0.59246  0.14978  Biso   1.000  N
  N20      1.0000 0.53889  0.06132  0.27455  Biso   1.000  N
  N21      1.0000 0.56776  0.27482  0.93292  Biso   1.000  N
  N22      1.0000 0.59605  0.15846  0.25131  Biso   1.000  N
  N23      1.0000 0.62419  0.36694  0.93274  Biso   1.000  N
  N24      1.0000 0.65236  0.26112  0.25283  Biso   1.000  N
  N25      1.0000 0.68068  0.48869  0.93009  Biso   1.000  N
  N26      1.0000 0.70880  0.40924  0.24129  Biso   1.000  N
  N27      1.0000 0.73681  0.65447  0.90958  Biso   1.000  N
  N28      1.0000 0.76516  0.58352  0.21559  Biso   1.000  N
  N29      1.0000 0.79315  0.82225  0.88722  Biso   1.000  N
  N30      1.0000 0.82152  0.73491  0.20021  Biso   1.000  N
  N31      1.0000 0.84944  0.95683  0.87320  Biso   1.000  N
  N32      1.0000 0.87805  0.85481  0.18175  Biso   1.000  N
  N33      1.0000 0.90603  0.06328  0.84857  Biso   1.000  N
  N34      1.0000 0.93431  0.95186  0.15317  Biso   1.000  N
  N35      1.0000 0.96246  0.15710  0.81851  Biso   1.000  N
  N36      1.0000 0.99136  0.03252  0.15143  Biso   1.000  N
