data_image0
_cell_length_a       28.7197
_cell_length_b       2.15743
_cell_length_c       2.4721
_cell_angle_alpha    65.5234
_cell_angle_beta     93.359
_cell_angle_gamma    88.3158

_symmetry_space_group_name_H-M    "P 1"
_symmetry_int_tables_number       1

loop_
  _symmetry_equiv_pos_as_xyz
  'x, y, z'

loop_
  _atom_site_label
  _atom_site_occupancy
  _atom_site_fract_x
  _atom_site_fract_y
  _atom_site_fract_z
  _atom_site_thermal_displace_type
  _atom_site_B_iso_or_equiv
  _atom_site_type_symbol
  N1       1.0000 0.01288  0.84012  0.03844  Biso   1.000  N
  N2       1.0000 0.05004  0.63842  0.41007  Biso   1.000  N
  N3       1.0000 0.08529  0.76983  0.11796  Biso   1.000  N
  N4       1.0000 0.12095  0.57237  0.47850  Biso   1.000  N
  N5       1.0000 0.15617  0.71511  0.18318  Biso   1.000  N
  N6       1.0000 0.19205  0.52811  0.53436  Biso   1.000  N
  N7       1.0000 0.22851  0.67201  0.22596  Biso   1.000  N
  N8       1.0000 0.25626  0.09161  0.37591  Biso   1.000  N
  N9       1.0000 0.29251  0.23714  0.06368  Biso   1.000  N
  N10      1.0000 0.32860  0.05290  0.41183  Biso   1.000  N
  N11      1.0000 0.36463  0.19787  0.09971  Biso   1.000  N
  N12      1.0000 0.39294  0.61314  0.25654  Biso   1.000  N
  N13      1.0000 0.42914  0.75666  0.95358  Biso   1.000  N
  N14      1.0000 0.46512  0.57496  0.30758  Biso   1.000  N
  N15      1.0000 0.50038  0.72662  0.02239  Biso   1.000  N
  N16      1.0000 0.53603  0.53475  0.38926  Biso   1.000  N
  N17      1.0000 0.57125  0.68139  0.10175  Biso   1.000  N
  N18      1.0000 0.60699  0.48922  0.45844  Biso   1.000  N
  N19      1.0000 0.64354  0.63229  0.15250  Biso   1.000  N
  N20      1.0000 0.67111  0.04419  0.32346  Biso   1.000  N
  N21      1.0000 0.70813  0.19536  0.99245  Biso   1.000  N
  N22      1.0000 0.73577  0.60611  0.16281  Biso   1.000  N
  N23      1.0000 0.77231  0.73929  0.85949  Biso   1.000  N
  N24      1.0000 0.80820  0.51084  0.21449  Biso   1.000  N
  N25      1.0000 0.84288  0.60553  0.92053  Biso   1.000  N
  N26      1.0000 0.87897  0.35665  0.27666  Biso   1.000  N
  N27      1.0000 0.91366  0.45102  0.98180  Biso   1.000  N
  N28      1.0000 0.94964  0.22464  0.33235  Biso   1.000  N
  N29      1.0000 0.98607  0.35435  0.02932  Biso   1.000  N
