data_image0
_cell_length_a       25.6708
_cell_length_b       2.15722
_cell_length_c       2.47137
_cell_angle_alpha    65.4888
_cell_angle_beta     83.4244
_cell_angle_gamma    90.0588

_symmetry_space_group_name_H-M    "P 1"
_symmetry_int_tables_number       1

loop_
  _symmetry_equiv_pos_as_xyz
  'x, y, z'

loop_
  _atom_site_label
  _atom_site_occupancy
  _atom_site_fract_x
  _atom_site_fract_y
  _atom_site_fract_z
  _atom_site_thermal_displace_type
  _atom_site_B_iso_or_equiv
  _atom_site_type_symbol
  N1       1.0000 0.01281  0.65499  0.18273  Biso   1.000  N
  N2       1.0000 0.05361  0.51086  0.47190  Biso   1.000  N
  N3       1.0000 0.09427  0.69832  0.09905  Biso   1.000  N
  N4       1.0000 0.13457  0.55500  0.38912  Biso   1.000  N
  N5       1.0000 0.16655  0.13572  0.21724  Biso   1.000  N
  N6       1.0000 0.20704  0.99398  0.50095  Biso   1.000  N
  N7       1.0000 0.24769  0.18563  0.12897  Biso   1.000  N
  N8       1.0000 0.28692  0.04617  0.40074  Biso   1.000  N
  N9       1.0000 0.32740  0.24432  0.02030  Biso   1.000  N
  N10      1.0000 0.36659  0.10238  0.29426  Biso   1.000  N
  N11      1.0000 0.40722  0.29109  0.92481  Biso   1.000  N
  N12      1.0000 0.44768  0.14413  0.21258  Biso   1.000  N
  N13      1.0000 0.47931  0.72301  0.04311  Biso   1.000  N
  N14      1.0000 0.51975  0.57775  0.33262  Biso   1.000  N
  N15      1.0000 0.56049  0.76193  0.96357  Biso   1.000  N
  N16      1.0000 0.60078  0.61836  0.25200  Biso   1.000  N
  N17      1.0000 0.63276  0.20261  0.07833  Biso   1.000  N
  N18      1.0000 0.67331  0.06839  0.35615  Biso   1.000  N
  N19      1.0000 0.71413  0.26008  0.98213  Biso   1.000  N
  N20      1.0000 0.75452  0.12717  0.25962  Biso   1.000  N
  N21      1.0000 0.78686  0.71528  0.07833  Biso   1.000  N
  N22      1.0000 0.82748  0.58076  0.35447  Biso   1.000  N
  N23      1.0000 0.86773  0.77452  0.97305  Biso   1.000  N
  N24      1.0000 0.90893  0.63605  0.25127  Biso   1.000  N
  N25      1.0000 0.94002  0.22257  0.06283  Biso   1.000  N
  N26      1.0000 0.98159  0.06893  0.36987  Biso   1.000  N
