data_image0
_cell_length_a       36.8891
_cell_length_b       2.19666
_cell_length_c       2.44077
_cell_angle_alpha    63.288
_cell_angle_beta     87.4332
_cell_angle_gamma    85.8197

_symmetry_space_group_name_H-M    "P 1"
_symmetry_int_tables_number       1

loop_
  _symmetry_equiv_pos_as_xyz
  'x, y, z'

loop_
  _atom_site_label
  _atom_site_occupancy
  _atom_site_fract_x
  _atom_site_fract_y
  _atom_site_fract_z
  _atom_site_thermal_displace_type
  _atom_site_B_iso_or_equiv
  _atom_site_type_symbol
  N1       1.0000 0.01384  0.89108  0.04477  Biso   1.000  N
  N2       1.0000 0.04131  0.65013  0.37062  Biso   1.000  N
  N3       1.0000 0.06950  0.71836  0.05778  Biso   1.000  N
  N4       1.0000 0.09704  0.48152  0.38265  Biso   1.000  N
  N5       1.0000 0.12518  0.56776  0.06342  Biso   1.000  N
  N6       1.0000 0.15294  0.34541  0.38206  Biso   1.000  N
  N7       1.0000 0.18093  0.44911  0.05689  Biso   1.000  N
  N8       1.0000 0.20890  0.24105  0.37044  Biso   1.000  N
  N9       1.0000 0.23691  0.36193  0.04341  Biso   1.000  N
  N10      1.0000 0.26483  0.17198  0.35870  Biso   1.000  N
  N11      1.0000 0.29276  0.31159  0.03253  Biso   1.000  N
  N12      1.0000 0.32080  0.14442  0.34844  Biso   1.000  N
  N13      1.0000 0.34863  0.30524  0.02290  Biso   1.000  N
  N14      1.0000 0.37672  0.16380  0.33227  Biso   1.000  N
  N15      1.0000 0.40420  0.34238  0.99617  Biso   1.000  N
  N16      1.0000 0.43246  0.22094  0.29672  Biso   1.000  N
  N17      1.0000 0.45990  0.41018  0.95611  Biso   1.000  N
  N18      1.0000 0.48782  0.29640  0.25705  Biso   1.000  N
  N19      1.0000 0.51575  0.46549  0.92572  Biso   1.000  N
  N20      1.0000 0.54440  0.27955  0.25375  Biso   1.000  N
  N21      1.0000 0.56629  0.82228  0.11924  Biso   1.000  N
  N22      1.0000 0.59492  0.62770  0.44837  Biso   1.000  N
  N23      1.0000 0.62294  0.76706  0.11745  Biso   1.000  N
  N24      1.0000 0.65103  0.58532  0.42222  Biso   1.000  N
  N25      1.0000 0.67877  0.71695  0.08458  Biso   1.000  N
  N26      1.0000 0.70707  0.51261  0.38933  Biso   1.000  N
  N27      1.0000 0.73479  0.62114  0.05667  Biso   1.000  N
  N28      1.0000 0.76279  0.39648  0.37052  Biso   1.000  N
  N29      1.0000 0.79073  0.48709  0.04859  Biso   1.000  N
  N30      1.0000 0.81857  0.25914  0.36821  Biso   1.000  N
  N31      1.0000 0.84663  0.34811  0.04786  Biso   1.000  N
  N32      1.0000 0.87429  0.12010  0.36772  Biso   1.000  N
  N33      1.0000 0.90237  0.21019  0.04433  Biso   1.000  N
  N34      1.0000 0.93013  0.97955  0.36085  Biso   1.000  N
  N35      1.0000 0.95814  0.05851  0.03980  Biso   1.000  N
  N36      1.0000 0.98570  0.81946  0.36190  Biso   1.000  N
