data_image0
_cell_length_a       34.5858
_cell_length_b       2.15881
_cell_length_c       2.46659
_cell_angle_alpha    65.7626
_cell_angle_beta     87.7331
_cell_angle_gamma    90.0793

_symmetry_space_group_name_H-M    "P 1"
_symmetry_int_tables_number       1

loop_
  _symmetry_equiv_pos_as_xyz
  'x, y, z'

loop_
  _atom_site_label
  _atom_site_occupancy
  _atom_site_fract_x
  _atom_site_fract_y
  _atom_site_fract_z
  _atom_site_thermal_displace_type
  _atom_site_B_iso_or_equiv
  _atom_site_type_symbol
  N1       1.0000 0.01293  0.80068  0.89660  Biso   1.000  N
  N2       1.0000 0.04446  0.62773  0.24341  Biso   1.000  N
  N3       1.0000 0.06689  0.20308  0.07780  Biso   1.000  N
  N4       1.0000 0.09757  0.04551  0.39048  Biso   1.000  N
  N5       1.0000 0.12691  0.22473  0.04068  Biso   1.000  N
  N6       1.0000 0.15618  0.07223  0.33705  Biso   1.000  N
  N7       1.0000 0.18561  0.25413  0.98393  Biso   1.000  N
  N8       1.0000 0.21596  0.10510  0.29080  Biso   1.000  N
  N9       1.0000 0.23917  0.67455  0.14418  Biso   1.000  N
  N10      1.0000 0.26943  0.52471  0.45446  Biso   1.000  N
  N11      1.0000 0.29904  0.70408  0.10864  Biso   1.000  N
  N12      1.0000 0.32799  0.54805  0.41581  Biso   1.000  N
  N13      1.0000 0.35777  0.72276  0.07826  Biso   1.000  N
  N14      1.0000 0.38780  0.56131  0.39983  Biso   1.000  N
  N15      1.0000 0.41087  0.12782  0.25503  Biso   1.000  N
  N16      1.0000 0.44107  0.96375  0.57935  Biso   1.000  N
  N17      1.0000 0.47054  0.13500  0.24250  Biso   1.000  N
  N18      1.0000 0.49972  0.97613  0.55024  Biso   1.000  N
  N19      1.0000 0.53023  0.15404  0.19518  Biso   1.000  N
  N20      1.0000 0.55321  0.59926  0.31858  Biso   1.000  N
  N21      1.0000 0.58353  0.77806  0.96179  Biso   1.000  N
  N22      1.0000 0.61295  0.61803  0.26403  Biso   1.000  N
  N23      1.0000 0.64227  0.78994  0.92105  Biso   1.000  N
  N24      1.0000 0.67152  0.62747  0.23068  Biso   1.000  N
  N25      1.0000 0.70146  0.79674  0.90077  Biso   1.000  N
  N26      1.0000 0.73012  0.63306  0.22261  Biso   1.000  N
  N27      1.0000 0.76011  0.80343  0.89646  Biso   1.000  N
  N28      1.0000 0.78993  0.63790  0.22582  Biso   1.000  N
  N29      1.0000 0.81303  0.20208  0.08387  Biso   1.000  N
  N30      1.0000 0.84316  0.03993  0.40780  Biso   1.000  N
  N31      1.0000 0.87279  0.21127  0.07073  Biso   1.000  N
  N32      1.0000 0.90215  0.05518  0.37725  Biso   1.000  N
  N33      1.0000 0.93134  0.23648  0.02432  Biso   1.000  N
  N34      1.0000 0.96087  0.08843  0.32292  Biso   1.000  N
  N35      1.0000 0.99138  0.26986  0.96207  Biso   1.000  N
