data_image0
_cell_length_a       35.9214
_cell_length_b       2.18861
_cell_length_c       2.44117
_cell_angle_alpha    63.2915
_cell_angle_beta     92.0508
_cell_angle_gamma    94.5534

_symmetry_space_group_name_H-M    "P 1"
_symmetry_int_tables_number       1

loop_
  _symmetry_equiv_pos_as_xyz
  'x, y, z'

loop_
  _atom_site_label
  _atom_site_occupancy
  _atom_site_fract_x
  _atom_site_fract_y
  _atom_site_fract_z
  _atom_site_thermal_displace_type
  _atom_site_B_iso_or_equiv
  _atom_site_type_symbol
  N1       1.0000 0.01068  0.84340  0.04468  Biso   1.000  N
  N2       1.0000 0.04046  0.71321  0.38102  Biso   1.000  N
  N3       1.0000 0.06917  0.91378  0.05830  Biso   1.000  N
  N4       1.0000 0.09777  0.79540  0.38147  Biso   1.000  N
  N5       1.0000 0.12651  0.00240  0.05971  Biso   1.000  N
  N6       1.0000 0.15541  0.89469  0.37894  Biso   1.000  N
  N7       1.0000 0.18397  0.10927  0.05519  Biso   1.000  N
  N8       1.0000 0.21293  0.01027  0.37341  Biso   1.000  N
  N9       1.0000 0.24133  0.23218  0.04809  Biso   1.000  N
  N10      1.0000 0.27032  0.13900  0.36594  Biso   1.000  N
  N11      1.0000 0.29889  0.36810  0.04305  Biso   1.000  N
  N12      1.0000 0.32764  0.28182  0.36176  Biso   1.000  N
  N13      1.0000 0.35625  0.51450  0.03746  Biso   1.000  N
  N14      1.0000 0.38505  0.42870  0.35542  Biso   1.000  N
  N15      1.0000 0.41362  0.65980  0.03186  Biso   1.000  N
  N16      1.0000 0.44248  0.56766  0.35037  Biso   1.000  N
  N17      1.0000 0.47107  0.79118  0.02674  Biso   1.000  N
  N18      1.0000 0.49989  0.68666  0.34652  Biso   1.000  N
  N19      1.0000 0.52864  0.89697  0.02474  Biso   1.000  N
  N20      1.0000 0.55731  0.77903  0.34729  Biso   1.000  N
  N21      1.0000 0.58616  0.97935  0.02740  Biso   1.000  N
  N22      1.0000 0.61486  0.85688  0.34962  Biso   1.000  N
  N23      1.0000 0.64363  0.05588  0.02886  Biso   1.000  N
  N24      1.0000 0.67240  0.93452  0.35135  Biso   1.000  N
  N25      1.0000 0.70113  0.13372  0.03007  Biso   1.000  N
  N26      1.0000 0.72983  0.01051  0.35114  Biso   1.000  N
  N27      1.0000 0.75879  0.20283  0.03088  Biso   1.000  N
  N28      1.0000 0.78727  0.06873  0.35464  Biso   1.000  N
  N29      1.0000 0.81623  0.25056  0.03577  Biso   1.000  N
  N30      1.0000 0.84473  0.10529  0.36067  Biso   1.000  N
  N31      1.0000 0.87367  0.27074  0.04393  Biso   1.000  N
  N32      1.0000 0.90225  0.11256  0.36900  Biso   1.000  N
  N33      1.0000 0.93088  0.26694  0.05056  Biso   1.000  N
  N34      1.0000 0.95945  0.11817  0.37646  Biso   1.000  N
  N35      1.0000 0.98932  0.31778  0.04266  Biso   1.000  N
