data_image0
_cell_length_a       26.6346
_cell_length_b       2.14384
_cell_length_c       2.45927
_cell_angle_alpha    65.775
_cell_angle_beta     91.0051
_cell_angle_gamma    90.0547

_symmetry_space_group_name_H-M    "P 1"
_symmetry_int_tables_number       1

loop_
  _symmetry_equiv_pos_as_xyz
  'x, y, z'

loop_
  _atom_site_label
  _atom_site_occupancy
  _atom_site_fract_x
  _atom_site_fract_y
  _atom_site_fract_z
  _atom_site_thermal_displace_type
  _atom_site_B_iso_or_equiv
  _atom_site_type_symbol
  N1       1.0000 0.01426  0.82204  0.80579  Biso   1.000  N
  N2       1.0000 0.05397  0.66123  0.13994  Biso   1.000  N
  N3       1.0000 0.09250  0.81856  0.82273  Biso   1.000  N
  N4       1.0000 0.13166  0.66095  0.15812  Biso   1.000  N
  N5       1.0000 0.16258  0.23143  0.02412  Biso   1.000  N
  N6       1.0000 0.20171  0.07218  0.36290  Biso   1.000  N
  N7       1.0000 0.24030  0.23181  0.04807  Biso   1.000  N
  N8       1.0000 0.27979  0.06931  0.38696  Biso   1.000  N
  N9       1.0000 0.30994  0.63243  0.25747  Biso   1.000  N
  N10      1.0000 0.34935  0.46291  0.60462  Biso   1.000  N
  N11      1.0000 0.38775  0.62386  0.29192  Biso   1.000  N
  N12      1.0000 0.42588  0.45277  0.62800  Biso   1.000  N
  N13      1.0000 0.46395  0.61820  0.30729  Biso   1.000  N
  N14      1.0000 0.50252  0.45323  0.63387  Biso   1.000  N
  N15      1.0000 0.54176  0.61472  0.30259  Biso   1.000  N
  N16      1.0000 0.57208  0.04354  0.44666  Biso   1.000  N
  N17      1.0000 0.61147  0.19831  0.12443  Biso   1.000  N
  N18      1.0000 0.65007  0.03202  0.45572  Biso   1.000  N
  N19      1.0000 0.68928  0.18657  0.13281  Biso   1.000  N
  N20      1.0000 0.71990  0.61366  0.27901  Biso   1.000  N
  N21      1.0000 0.75915  0.76771  0.95924  Biso   1.000  N
  N22      1.0000 0.79783  0.60122  0.29023  Biso   1.000  N
  N23      1.0000 0.83689  0.75273  0.96987  Biso   1.000  N
  N24      1.0000 0.86788  0.17775  0.11578  Biso   1.000  N
  N25      1.0000 0.90683  0.32844  0.79493  Biso   1.000  N
  N26      1.0000 0.94559  0.16437  0.12539  Biso   1.000  N
  N27      1.0000 0.98509  0.32057  0.80653  Biso   1.000  N
