data_image0
_cell_length_a       30.84
_cell_length_b       2.1689
_cell_length_c       2.46704
_cell_angle_alpha    65.3958
_cell_angle_beta     89.3612
_cell_angle_gamma    86.3896

_symmetry_space_group_name_H-M    "P 1"
_symmetry_int_tables_number       1

loop_
  _symmetry_equiv_pos_as_xyz
  'x, y, z'

loop_
  _atom_site_label
  _atom_site_occupancy
  _atom_site_fract_x
  _atom_site_fract_y
  _atom_site_fract_z
  _atom_site_thermal_displace_type
  _atom_site_B_iso_or_equiv
  _atom_site_type_symbol
  N1       1.0000 0.00815  0.73224  0.01699  Biso   1.000  N
  N2       1.0000 0.04248  0.52999  0.35830  Biso   1.000  N
  N3       1.0000 0.07546  0.66470  0.04034  Biso   1.000  N
  N4       1.0000 0.10821  0.46347  0.37370  Biso   1.000  N
  N5       1.0000 0.14135  0.59955  0.05277  Biso   1.000  N
  N6       1.0000 0.17444  0.38898  0.37763  Biso   1.000  N
  N7       1.0000 0.20737  0.51260  0.05559  Biso   1.000  N
  N8       1.0000 0.24039  0.28700  0.38494  Biso   1.000  N
  N9       1.0000 0.27336  0.39752  0.06984  Biso   1.000  N
  N10      1.0000 0.30641  0.16502  0.40411  Biso   1.000  N
  N11      1.0000 0.33935  0.26628  0.09316  Biso   1.000  N
  N12      1.0000 0.37242  0.03069  0.42948  Biso   1.000  N
  N13      1.0000 0.40515  0.13675  0.11139  Biso   1.000  N
  N14      1.0000 0.43837  0.91844  0.43777  Biso   1.000  N
  N15      1.0000 0.47232  0.04673  0.10595  Biso   1.000  N
  N16      1.0000 0.49822  0.45943  0.24054  Biso   1.000  N
  N17      1.0000 0.53188  0.59686  0.90020  Biso   1.000  N
  N18      1.0000 0.56524  0.39829  0.22089  Biso   1.000  N
  N19      1.0000 0.59785  0.53809  0.89410  Biso   1.000  N
  N20      1.0000 0.63104  0.34480  0.22057  Biso   1.000  N
  N21      1.0000 0.66426  0.49180  0.90497  Biso   1.000  N
  N22      1.0000 0.69675  0.30365  0.24460  Biso   1.000  N
  N23      1.0000 0.73017  0.44834  0.93842  Biso   1.000  N
  N24      1.0000 0.76384  0.24488  0.29122  Biso   1.000  N
  N25      1.0000 0.78974  0.78059  0.16270  Biso   1.000  N
  N26      1.0000 0.82365  0.57991  0.51257  Biso   1.000  N
  N27      1.0000 0.85659  0.73420  0.19988  Biso   1.000  N
  N28      1.0000 0.88935  0.55297  0.53048  Biso   1.000  N
  N29      1.0000 0.92364  0.70539  0.19113  Biso   1.000  N
  N30      1.0000 0.94874  0.11746  0.34119  Biso   1.000  N
  N31      1.0000 0.98381  0.27589  0.96958  Biso   1.000  N
