data_image0
_cell_length_a       32.6278
_cell_length_b       2.1516
_cell_length_c       2.46074
_cell_angle_alpha    65.9466
_cell_angle_beta     89.235
_cell_angle_gamma    90.1759

_symmetry_space_group_name_H-M    "P 1"
_symmetry_int_tables_number       1

loop_
  _symmetry_equiv_pos_as_xyz
  'x, y, z'

loop_
  _atom_site_label
  _atom_site_occupancy
  _atom_site_fract_x
  _atom_site_fract_y
  _atom_site_fract_z
  _atom_site_thermal_displace_type
  _atom_site_B_iso_or_equiv
  _atom_site_type_symbol
  N1       1.0000 0.01100  0.80503  0.83861  Biso   1.000  N
  N2       1.0000 0.04307  0.64220  0.16412  Biso   1.000  N
  N3       1.0000 0.07448  0.80937  0.83566  Biso   1.000  N
  N4       1.0000 0.10512  0.64733  0.15644  Biso   1.000  N
  N5       1.0000 0.13657  0.81700  0.83164  Biso   1.000  N
  N6       1.0000 0.16846  0.65358  0.16376  Biso   1.000  N
  N7       1.0000 0.19285  0.21726  0.02658  Biso   1.000  N
  N8       1.0000 0.22522  0.05887  0.34961  Biso   1.000  N
  N9       1.0000 0.25612  0.23370  0.01488  Biso   1.000  N
  N10      1.0000 0.28750  0.08110  0.32148  Biso   1.000  N
  N11      1.0000 0.31831  0.26522  0.97675  Biso   1.000  N
  N12      1.0000 0.34967  0.11503  0.28106  Biso   1.000  N
  N13      1.0000 0.38076  0.29121  0.94519  Biso   1.000  N
  N14      1.0000 0.41292  0.13549  0.26455  Biso   1.000  N
  N15      1.0000 0.43771  0.70265  0.11991  Biso   1.000  N
  N16      1.0000 0.46970  0.54319  0.44919  Biso   1.000  N
  N17      1.0000 0.50102  0.71013  0.12007  Biso   1.000  N
  N18      1.0000 0.53313  0.54840  0.45170  Biso   1.000  N
  N19      1.0000 0.55746  0.11073  0.31806  Biso   1.000  N
  N20      1.0000 0.58956  0.94677  0.65096  Biso   1.000  N
  N21      1.0000 0.62099  0.11119  0.32600  Biso   1.000  N
  N22      1.0000 0.65190  0.94419  0.64882  Biso   1.000  N
  N23      1.0000 0.68312  0.11141  0.31617  Biso   1.000  N
  N24      1.0000 0.71431  0.94894  0.63140  Biso   1.000  N
  N25      1.0000 0.74651  0.11720  0.28867  Biso   1.000  N
  N26      1.0000 0.77104  0.55695  0.41614  Biso   1.000  N
  N27      1.0000 0.80307  0.71916  0.07723  Biso   1.000  N
  N28      1.0000 0.83464  0.55705  0.39177  Biso   1.000  N
  N29      1.0000 0.86646  0.71402  0.05434  Biso   1.000  N
  N30      1.0000 0.89163  0.14610  0.18611  Biso   1.000  N
  N31      1.0000 0.92353  0.30376  0.85070  Biso   1.000  N
  N32      1.0000 0.95484  0.14352  0.16984  Biso   1.000  N
  N33      1.0000 0.98732  0.30474  0.83759  Biso   1.000  N
