data_image0
_cell_length_a       24.5617
_cell_length_b       2.15805
_cell_length_c       2.47773
_cell_angle_alpha    65.468
_cell_angle_beta     88.9676
_cell_angle_gamma    87.6332

_symmetry_space_group_name_H-M    "P 1"
_symmetry_int_tables_number       1

loop_
  _symmetry_equiv_pos_as_xyz
  'x, y, z'

loop_
  _atom_site_label
  _atom_site_occupancy
  _atom_site_fract_x
  _atom_site_fract_y
  _atom_site_fract_z
  _atom_site_thermal_displace_type
  _atom_site_B_iso_or_equiv
  _atom_site_type_symbol
  N1       1.0000 0.01612  0.72744  0.02801  Biso   1.000  N
  N2       1.0000 0.05910  0.53647  0.35882  Biso   1.000  N
  N3       1.0000 0.10044  0.67935  0.03327  Biso   1.000  N
  N4       1.0000 0.14157  0.49102  0.35000  Biso   1.000  N
  N5       1.0000 0.18325  0.64489  0.01948  Biso   1.000  N
  N6       1.0000 0.22421  0.46172  0.34113  Biso   1.000  N
  N7       1.0000 0.26586  0.61117  0.02246  Biso   1.000  N
  N8       1.0000 0.30828  0.42148  0.35869  Biso   1.000  N
  N9       1.0000 0.34079  0.96516  0.22744  Biso   1.000  N
  N10      1.0000 0.38316  0.77633  0.56308  Biso   1.000  N
  N11      1.0000 0.42639  0.91956  0.23584  Biso   1.000  N
  N12      1.0000 0.45832  0.33966  0.38232  Biso   1.000  N
  N13      1.0000 0.50138  0.50091  0.02032  Biso   1.000  N
  N14      1.0000 0.53333  0.92171  0.16589  Biso   1.000  N
  N15      1.0000 0.57641  0.06767  0.83555  Biso   1.000  N
  N16      1.0000 0.61903  0.88225  0.17045  Biso   1.000  N
  N17      1.0000 0.65130  0.42649  0.04120  Biso   1.000  N
  N18      1.0000 0.69387  0.23824  0.38127  Biso   1.000  N
  N19      1.0000 0.73540  0.38707  0.06328  Biso   1.000  N
  N20      1.0000 0.77653  0.19868  0.38939  Biso   1.000  N
  N21      1.0000 0.81798  0.34249  0.06397  Biso   1.000  N
  N22      1.0000 0.85967  0.14741  0.38028  Biso   1.000  N
  N23      1.0000 0.90065  0.28703  0.04880  Biso   1.000  N
  N24      1.0000 0.94213  0.09513  0.36672  Biso   1.000  N
  N25      1.0000 0.98485  0.24317  0.02735  Biso   1.000  N
