data_image0
_cell_length_a       28.7027
_cell_length_b       2.15133
_cell_length_c       2.46682
_cell_angle_alpha    65.6573
_cell_angle_beta     89.293
_cell_angle_gamma    88.2256

_symmetry_space_group_name_H-M    "P 1"
_symmetry_int_tables_number       1

loop_
  _symmetry_equiv_pos_as_xyz
  'x, y, z'

loop_
  _atom_site_label
  _atom_site_occupancy
  _atom_site_fract_x
  _atom_site_fract_y
  _atom_site_fract_z
  _atom_site_thermal_displace_type
  _atom_site_B_iso_or_equiv
  _atom_site_type_symbol
  N1       1.0000 0.01477  0.75120  0.06196  Biso   1.000  N
  N2       1.0000 0.05149  0.57046  0.40167  Biso   1.000  N
  N3       1.0000 0.08713  0.72449  0.08454  Biso   1.000  N
  N4       1.0000 0.12229  0.55582  0.41591  Biso   1.000  N
  N5       1.0000 0.15785  0.72440  0.09284  Biso   1.000  N
  N6       1.0000 0.19331  0.56079  0.41404  Biso   1.000  N
  N7       1.0000 0.22993  0.71988  0.07517  Biso   1.000  N
  N8       1.0000 0.25743  0.14692  0.20585  Biso   1.000  N
  N9       1.0000 0.29442  0.28802  0.88106  Biso   1.000  N
  N10      1.0000 0.33110  0.11996  0.21343  Biso   1.000  N
  N11      1.0000 0.35871  0.67444  0.08133  Biso   1.000  N
  N12      1.0000 0.39537  0.49669  0.42142  Biso   1.000  N
  N13      1.0000 0.43063  0.66192  0.09974  Biso   1.000  N
  N14      1.0000 0.46609  0.49880  0.41897  Biso   1.000  N
  N15      1.0000 0.50254  0.66093  0.07625  Biso   1.000  N
  N16      1.0000 0.53023  0.08794  0.20632  Biso   1.000  N
  N17      1.0000 0.56680  0.23139  0.87386  Biso   1.000  N
  N18      1.0000 0.60371  0.06607  0.19673  Biso   1.000  N
  N19      1.0000 0.63153  0.62401  0.06366  Biso   1.000  N
  N20      1.0000 0.66792  0.43629  0.40165  Biso   1.000  N
  N21      1.0000 0.70358  0.56034  0.08386  Biso   1.000  N
  N22      1.0000 0.73884  0.34372  0.40758  Biso   1.000  N
  N23      1.0000 0.77424  0.46366  0.08443  Biso   1.000  N
  N24      1.0000 0.80963  0.24689  0.40647  Biso   1.000  N
  N25      1.0000 0.84493  0.36786  0.08083  Biso   1.000  N
  N26      1.0000 0.88056  0.16026  0.39904  Biso   1.000  N
  N27      1.0000 0.91577  0.29921  0.07101  Biso   1.000  N
  N28      1.0000 0.95116  0.10890  0.39430  Biso   1.000  N
  N29      1.0000 0.98802  0.26126  0.06107  Biso   1.000  N
