data_image0
_cell_length_a       36.0146
_cell_length_b       2.19382
_cell_length_c       2.44161
_cell_angle_alpha    63.2429
_cell_angle_beta     86.8587
_cell_angle_gamma    83.0661

_symmetry_space_group_name_H-M    "P 1"
_symmetry_int_tables_number       1

loop_
  _symmetry_equiv_pos_as_xyz
  'x, y, z'

loop_
  _atom_site_label
  _atom_site_occupancy
  _atom_site_fract_x
  _atom_site_fract_y
  _atom_site_fract_z
  _atom_site_thermal_displace_type
  _atom_site_B_iso_or_equiv
  _atom_site_type_symbol
  N1       1.0000 0.01051  0.74592  0.05389  Biso   1.000  N
  N2       1.0000 0.04041  0.52935  0.38405  Biso   1.000  N
  N3       1.0000 0.06895  0.66486  0.05584  Biso   1.000  N
  N4       1.0000 0.09769  0.50032  0.36891  Biso   1.000  N
  N5       1.0000 0.12626  0.63822  0.04252  Biso   1.000  N
  N6       1.0000 0.15525  0.44866  0.35937  Biso   1.000  N
  N7       1.0000 0.18379  0.56763  0.03585  Biso   1.000  N
  N8       1.0000 0.21272  0.35487  0.35657  Biso   1.000  N
  N9       1.0000 0.24134  0.45575  0.03560  Biso   1.000  N
  N10      1.0000 0.27028  0.22917  0.35593  Biso   1.000  N
  N11      1.0000 0.29893  0.32167  0.03319  Biso   1.000  N
  N12      1.0000 0.32772  0.09198  0.35211  Biso   1.000  N
  N13      1.0000 0.35649  0.18719  0.02873  Biso   1.000  N
  N14      1.0000 0.38529  0.96299  0.34848  Biso   1.000  N
  N15      1.0000 0.41398  0.06229  0.02691  Biso   1.000  N
  N16      1.0000 0.44281  0.84061  0.34828  Biso   1.000  N
  N17      1.0000 0.47156  0.93916  0.02728  Biso   1.000  N
  N18      1.0000 0.50033  0.71306  0.34789  Biso   1.000  N
  N19      1.0000 0.52907  0.80399  0.02514  Biso   1.000  N
  N20      1.0000 0.55781  0.56734  0.34445  Biso   1.000  N
  N21      1.0000 0.58662  0.64416  0.02211  Biso   1.000  N
  N22      1.0000 0.61522  0.39242  0.34328  Biso   1.000  N
  N23      1.0000 0.64399  0.45131  0.02509  Biso   1.000  N
  N24      1.0000 0.67255  0.18913  0.35028  Biso   1.000  N
  N25      1.0000 0.70136  0.23391  0.03506  Biso   1.000  N
  N26      1.0000 0.72967  0.96289  0.36091  Biso   1.000  N
  N27      1.0000 0.75862  0.00337  0.04567  Biso   1.000  N
  N28      1.0000 0.78694  0.73502  0.37029  Biso   1.000  N
  N29      1.0000 0.81584  0.77762  0.05383  Biso   1.000  N
  N30      1.0000 0.84421  0.51679  0.37833  Biso   1.000  N
  N31      1.0000 0.87316  0.57442  0.06135  Biso   1.000  N
  N32      1.0000 0.90182  0.32843  0.38493  Biso   1.000  N
  N33      1.0000 0.93053  0.40832  0.06601  Biso   1.000  N
  N34      1.0000 0.95924  0.18170  0.39027  Biso   1.000  N
  N35      1.0000 0.98901  0.28798  0.05662  Biso   1.000  N
