data_image0
_cell_length_a       24.6026
_cell_length_b       2.19314
_cell_length_c       2.44032
_cell_angle_alpha    63.3631
_cell_angle_beta     91.8227
_cell_angle_gamma    96.0199

_symmetry_space_group_name_H-M    "P 1"
_symmetry_int_tables_number       1

loop_
  _symmetry_equiv_pos_as_xyz
  'x, y, z'

loop_
  _atom_site_label
  _atom_site_occupancy
  _atom_site_fract_x
  _atom_site_fract_y
  _atom_site_fract_z
  _atom_site_thermal_displace_type
  _atom_site_B_iso_or_equiv
  _atom_site_type_symbol
  N1       1.0000 0.01613  0.72257  0.11360  Biso   1.000  N
  N2       1.0000 0.05899  0.61486  0.44336  Biso   1.000  N
  N3       1.0000 0.10121  0.84350  0.11275  Biso   1.000  N
  N4       1.0000 0.14303  0.75235  0.42413  Biso   1.000  N
  N5       1.0000 0.18510  0.97290  0.09203  Biso   1.000  N
  N6       1.0000 0.22723  0.85910  0.40399  Biso   1.000  N
  N7       1.0000 0.26926  0.05444  0.07654  Biso   1.000  N
  N8       1.0000 0.31109  0.91744  0.39507  Biso   1.000  N
  N9       1.0000 0.35321  0.09962  0.07215  Biso   1.000  N
  N10      1.0000 0.39509  0.96231  0.39075  Biso   1.000  N
  N11      1.0000 0.43726  0.15224  0.06658  Biso   1.000  N
  N12      1.0000 0.47912  0.02907  0.38215  Biso   1.000  N
  N13      1.0000 0.52129  0.24248  0.05237  Biso   1.000  N
  N14      1.0000 0.56330  0.14404  0.36548  Biso   1.000  N
  N15      1.0000 0.60522  0.37873  0.03641  Biso   1.000  N
  N16      1.0000 0.64743  0.30208  0.34911  Biso   1.000  N
  N17      1.0000 0.68913  0.55273  0.01891  Biso   1.000  N
  N18      1.0000 0.73132  0.49440  0.32877  Biso   1.000  N
  N19      1.0000 0.77268  0.75898  0.99296  Biso   1.000  N
  N20      1.0000 0.81501  0.71990  0.29552  Biso   1.000  N
  N21      1.0000 0.85635  0.99288  0.95552  Biso   1.000  N
  N22      1.0000 0.89825  0.95799  0.25805  Biso   1.000  N
  N23      1.0000 0.94014  0.21251  0.92341  Biso   1.000  N
  N24      1.0000 0.98316  0.11287  0.25038  Biso   1.000  N
