data_image0
_cell_length_a       37.4237
_cell_length_b       2.17006
_cell_length_c       2.45254
_cell_angle_alpha    63.7049
_cell_angle_beta     90.5224
_cell_angle_gamma    86.9772

_symmetry_space_group_name_H-M    "P 1"
_symmetry_int_tables_number       1

loop_
  _symmetry_equiv_pos_as_xyz
  'x, y, z'

loop_
  _atom_site_label
  _atom_site_occupancy
  _atom_site_fract_x
  _atom_site_fract_y
  _atom_site_fract_z
  _atom_site_thermal_displace_type
  _atom_site_B_iso_or_equiv
  _atom_site_type_symbol
  N1       1.0000 0.01041  0.74218  0.03509  Biso   1.000  N
  N2       1.0000 0.03910  0.54913  0.37966  Biso   1.000  N
  N3       1.0000 0.06637  0.69297  0.06759  Biso   1.000  N
  N4       1.0000 0.09395  0.52642  0.39633  Biso   1.000  N
  N5       1.0000 0.12143  0.66849  0.08878  Biso   1.000  N
  N6       1.0000 0.14906  0.48279  0.42242  Biso   1.000  N
  N7       1.0000 0.17663  0.60325  0.12151  Biso   1.000  N
  N8       1.0000 0.20399  0.39378  0.46117  Biso   1.000  N
  N9       1.0000 0.23174  0.49236  0.16506  Biso   1.000  N
  N10      1.0000 0.25905  0.26938  0.50884  Biso   1.000  N
  N11      1.0000 0.28667  0.35810  0.21518  Biso   1.000  N
  N12      1.0000 0.31409  0.14380  0.55636  Biso   1.000  N
  N13      1.0000 0.34234  0.27054  0.24111  Biso   1.000  N
  N14      1.0000 0.36400  0.67829  0.38650  Biso   1.000  N
  N15      1.0000 0.39205  0.81100  0.06803  Biso   1.000  N
  N16      1.0000 0.41984  0.61195  0.40713  Biso   1.000  N
  N17      1.0000 0.44793  0.74595  0.08726  Biso   1.000  N
  N18      1.0000 0.46946  0.15657  0.22910  Biso   1.000  N
  N19      1.0000 0.49781  0.29238  0.91739  Biso   1.000  N
  N20      1.0000 0.52513  0.10530  0.26106  Biso   1.000  N
  N21      1.0000 0.55305  0.24932  0.97462  Biso   1.000  N
  N22      1.0000 0.58011  0.06708  0.32509  Biso   1.000  N
  N23      1.0000 0.60794  0.20960  0.03527  Biso   1.000  N
  N24      1.0000 0.63539  0.02226  0.37604  Biso   1.000  N
  N25      1.0000 0.66359  0.15824  0.06065  Biso   1.000  N
  N26      1.0000 0.68524  0.56807  0.20364  Biso   1.000  N
  N27      1.0000 0.71323  0.70121  0.88132  Biso   1.000  N
  N28      1.0000 0.74101  0.49747  0.21500  Biso   1.000  N
  N29      1.0000 0.76857  0.60109  0.91614  Biso   1.000  N
  N30      1.0000 0.79590  0.38695  0.25818  Biso   1.000  N
  N31      1.0000 0.82369  0.48831  0.96242  Biso   1.000  N
  N32      1.0000 0.85109  0.28000  0.30163  Biso   1.000  N
  N33      1.0000 0.87879  0.39159  0.00043  Biso   1.000  N
  N34      1.0000 0.90638  0.19462  0.33285  Biso   1.000  N
  N35      1.0000 0.93373  0.31568  0.02541  Biso   1.000  N
  N36      1.0000 0.96156  0.12544  0.35651  Biso   1.000  N
  N37      1.0000 0.98969  0.26095  0.03425  Biso   1.000  N
