data_image0
_cell_length_a       32.4233
_cell_length_b       2.17682
_cell_length_c       2.45432
_cell_angle_alpha    63.669
_cell_angle_beta     91.1737
_cell_angle_gamma    94.0955

_symmetry_space_group_name_H-M    "P 1"
_symmetry_int_tables_number       1

loop_
  _symmetry_equiv_pos_as_xyz
  'x, y, z'

loop_
  _atom_site_label
  _atom_site_occupancy
  _atom_site_fract_x
  _atom_site_fract_y
  _atom_site_fract_z
  _atom_site_thermal_displace_type
  _atom_site_B_iso_or_equiv
  _atom_site_type_symbol
  N1       1.0000 0.01056  0.59373  0.16727  Biso   1.000  N
  N2       1.0000 0.04319  0.47529  0.49459  Biso   1.000  N
  N3       1.0000 0.07487  0.69820  0.16432  Biso   1.000  N
  N4       1.0000 0.10664  0.62160  0.46946  Biso   1.000  N
  N5       1.0000 0.13807  0.85900  0.13273  Biso   1.000  N
  N6       1.0000 0.17016  0.78958  0.43301  Biso   1.000  N
  N7       1.0000 0.20146  0.03089  0.09935  Biso   1.000  N
  N8       1.0000 0.23339  0.95600  0.40861  Biso   1.000  N
  N9       1.0000 0.26477  0.19405  0.08239  Biso   1.000  N
  N10      1.0000 0.29674  0.11150  0.39552  Biso   1.000  N
  N11      1.0000 0.32824  0.34525  0.06957  Biso   1.000  N
  N12      1.0000 0.35998  0.25737  0.38041  Biso   1.000  N
  N13      1.0000 0.39183  0.47724  0.05308  Biso   1.000  N
  N14      1.0000 0.42347  0.36870  0.36624  Biso   1.000  N
  N15      1.0000 0.45535  0.57002  0.04303  Biso   1.000  N
  N16      1.0000 0.48699  0.44150  0.36301  Biso   1.000  N
  N17      1.0000 0.51901  0.62070  0.04847  Biso   1.000  N
  N18      1.0000 0.55074  0.47723  0.37045  Biso   1.000  N
  N19      1.0000 0.58242  0.64869  0.05074  Biso   1.000  N
  N20      1.0000 0.61423  0.50916  0.36772  Biso   1.000  N
  N21      1.0000 0.64681  0.70876  0.02761  Biso   1.000  N
  N22      1.0000 0.67147  0.17292  0.14964  Biso   1.000  N
  N23      1.0000 0.70416  0.37222  0.81749  Biso   1.000  N
  N24      1.0000 0.73679  0.24355  0.14298  Biso   1.000  N
  N25      1.0000 0.76142  0.83195  0.01776  Biso   1.000  N
  N26      1.0000 0.79389  0.70129  0.34916  Biso   1.000  N
  N27      1.0000 0.82593  0.90045  0.02552  Biso   1.000  N
  N28      1.0000 0.85772  0.79223  0.33311  Biso   1.000  N
  N29      1.0000 0.88947  0.00496  0.99906  Biso   1.000  N
  N30      1.0000 0.92130  0.90841  0.30311  Biso   1.000  N
  N31      1.0000 0.95322  0.11956  0.97403  Biso   1.000  N
  N32      1.0000 0.98574  0.99802  0.30056  Biso   1.000  N
