data_image0
_cell_length_a       41.8207
_cell_length_b       2.18832
_cell_length_c       2.44306
_cell_angle_alpha    63.36
_cell_angle_beta     87.7659
_cell_angle_gamma    86.4789

_symmetry_space_group_name_H-M    "P 1"
_symmetry_int_tables_number       1

loop_
  _symmetry_equiv_pos_as_xyz
  'x, y, z'

loop_
  _atom_site_label
  _atom_site_occupancy
  _atom_site_fract_x
  _atom_site_fract_y
  _atom_site_fract_z
  _atom_site_thermal_displace_type
  _atom_site_B_iso_or_equiv
  _atom_site_type_symbol
  N1       1.0000 0.01035  0.83732  0.98280  Biso   1.000  N
  N2       1.0000 0.03585  0.64846  0.30468  Biso   1.000  N
  N3       1.0000 0.06053  0.78909  0.97352  Biso   1.000  N
  N4       1.0000 0.08501  0.61777  0.27968  Biso   1.000  N
  N5       1.0000 0.10981  0.75888  0.95199  Biso   1.000  N
  N6       1.0000 0.13501  0.56583  0.28195  Biso   1.000  N
  N7       1.0000 0.15420  0.10915  0.15193  Biso   1.000  N
  N8       1.0000 0.17942  0.91448  0.48589  Biso   1.000  N
  N9       1.0000 0.20410  0.05290  0.15771  Biso   1.000  N
  N10      1.0000 0.22873  0.87452  0.46877  Biso   1.000  N
  N11      1.0000 0.25327  0.01244  0.13629  Biso   1.000  N
  N12      1.0000 0.27817  0.83000  0.44394  Biso   1.000  N
  N13      1.0000 0.30264  0.96311  0.11295  Biso   1.000  N
  N14      1.0000 0.32744  0.77440  0.42639  Biso   1.000  N
  N15      1.0000 0.35196  0.90785  0.10001  Biso   1.000  N
  N16      1.0000 0.37677  0.72494  0.41453  Biso   1.000  N
  N17      1.0000 0.40138  0.87047  0.08855  Biso   1.000  N
  N18      1.0000 0.42604  0.70464  0.40200  Biso   1.000  N
  N19      1.0000 0.45062  0.86852  0.07227  Biso   1.000  N
  N20      1.0000 0.47529  0.72557  0.38307  Biso   1.000  N
  N21      1.0000 0.49972  0.90853  0.05439  Biso   1.000  N
  N22      1.0000 0.52436  0.78026  0.36594  Biso   1.000  N
  N23      1.0000 0.54879  0.96998  0.03832  Biso   1.000  N
  N24      1.0000 0.57332  0.84386  0.35142  Biso   1.000  N
  N25      1.0000 0.59782  0.03377  0.02524  Biso   1.000  N
  N26      1.0000 0.62229  0.90094  0.34003  Biso   1.000  N
  N27      1.0000 0.64693  0.07945  0.01499  Biso   1.000  N
  N28      1.0000 0.67146  0.92725  0.33045  Biso   1.000  N
  N29      1.0000 0.69616  0.08197  0.00551  Biso   1.000  N
  N30      1.0000 0.72071  0.90042  0.32438  Biso   1.000  N
  N31      1.0000 0.74549  0.02358  0.00224  Biso   1.000  N
  N32      1.0000 0.76992  0.81618  0.32157  Biso   1.000  N
  N33      1.0000 0.79482  0.91166  0.00125  Biso   1.000  N
  N34      1.0000 0.81909  0.68582  0.32272  Biso   1.000  N
  N35      1.0000 0.84389  0.76315  0.00314  Biso   1.000  N
  N36      1.0000 0.86817  0.53086  0.32355  Biso   1.000  N
  N37      1.0000 0.89295  0.60282  0.00357  Biso   1.000  N
  N38      1.0000 0.91733  0.36810  0.32319  Biso   1.000  N
  N39      1.0000 0.94189  0.44566  0.00100  Biso   1.000  N
  N40      1.0000 0.96637  0.22823  0.32124  Biso   1.000  N
  N41      1.0000 0.99193  0.35966  0.98195  Biso   1.000  N
