data_image0
_cell_length_a       30.7246
_cell_length_b       2.14587
_cell_length_c       2.47625
_cell_angle_alpha    65.7166
_cell_angle_beta     89.4437
_cell_angle_gamma    87.6971

_symmetry_space_group_name_H-M    "P 1"
_symmetry_int_tables_number       1

loop_
  _symmetry_equiv_pos_as_xyz
  'x, y, z'

loop_
  _atom_site_label
  _atom_site_occupancy
  _atom_site_fract_x
  _atom_site_fract_y
  _atom_site_fract_z
  _atom_site_thermal_displace_type
  _atom_site_B_iso_or_equiv
  _atom_site_type_symbol
  N1       1.0000 0.01366  0.80013  0.90115  Biso   1.000  N
  N2       1.0000 0.04912  0.59268  0.27718  Biso   1.000  N
  N3       1.0000 0.07431  0.14562  0.13052  Biso   1.000  N
  N4       1.0000 0.10903  0.95774  0.47375  Biso   1.000  N
  N5       1.0000 0.14204  0.10594  0.15410  Biso   1.000  N
  N6       1.0000 0.17513  0.92602  0.48522  Biso   1.000  N
  N7       1.0000 0.20821  0.08007  0.16119  Biso   1.000  N
  N8       1.0000 0.24142  0.90236  0.48391  Biso   1.000  N
  N9       1.0000 0.27570  0.05467  0.14495  Biso   1.000  N
  N10      1.0000 0.30145  0.47761  0.27949  Biso   1.000  N
  N11      1.0000 0.33564  0.62620  0.94146  Biso   1.000  N
  N12      1.0000 0.36891  0.44046  0.26103  Biso   1.000  N
  N13      1.0000 0.40174  0.58479  0.93442  Biso   1.000  N
  N14      1.0000 0.43507  0.39811  0.25733  Biso   1.000  N
  N15      1.0000 0.46816  0.54865  0.93688  Biso   1.000  N
  N16      1.0000 0.50128  0.36696  0.26479  Biso   1.000  N
  N17      1.0000 0.53425  0.51933  0.94628  Biso   1.000  N
  N18      1.0000 0.56869  0.33134  0.28510  Biso   1.000  N
  N19      1.0000 0.59438  0.87892  0.15044  Biso   1.000  N
  N20      1.0000 0.62885  0.69378  0.48842  Biso   1.000  N
  N21      1.0000 0.66185  0.84315  0.16753  Biso   1.000  N
  N22      1.0000 0.69515  0.66495  0.49166  Biso   1.000  N
  N23      1.0000 0.72798  0.82077  0.16341  Biso   1.000  N
  N24      1.0000 0.76134  0.64134  0.48404  Biso   1.000  N
  N25      1.0000 0.79543  0.79222  0.14638  Biso   1.000  N
  N26      1.0000 0.82144  0.21808  0.27580  Biso   1.000  N
  N27      1.0000 0.85527  0.36695  0.94010  Biso   1.000  N
  N28      1.0000 0.88897  0.17801  0.26822  Biso   1.000  N
  N29      1.0000 0.92143  0.32574  0.94881  Biso   1.000  N
  N30      1.0000 0.95491  0.13967  0.28007  Biso   1.000  N
  N31      1.0000 0.98916  0.29022  0.95137  Biso   1.000  N
