data_image0
_cell_length_a       32.911
_cell_length_b       2.16708
_cell_length_c       2.46383
_cell_angle_alpha    65.1032
_cell_angle_beta     87.9454
_cell_angle_gamma    87.9271

_symmetry_space_group_name_H-M    "P 1"
_symmetry_int_tables_number       1

loop_
  _symmetry_equiv_pos_as_xyz
  'x, y, z'

loop_
  _atom_site_label
  _atom_site_occupancy
  _atom_site_fract_x
  _atom_site_fract_y
  _atom_site_fract_z
  _atom_site_thermal_displace_type
  _atom_site_B_iso_or_equiv
  _atom_site_type_symbol
  N1       1.0000 0.01403  0.77996  0.95721  Biso   1.000  N
  N2       1.0000 0.04629  0.60669  0.28013  Biso   1.000  N
  N3       1.0000 0.07710  0.76544  0.94143  Biso   1.000  N
  N4       1.0000 0.10894  0.59303  0.26608  Biso   1.000  N
  N5       1.0000 0.13345  0.15008  0.12012  Biso   1.000  N
  N6       1.0000 0.16527  0.98275  0.44050  Biso   1.000  N
  N7       1.0000 0.19625  0.16273  0.10382  Biso   1.000  N
  N8       1.0000 0.22701  0.02321  0.41311  Biso   1.000  N
  N9       1.0000 0.25788  0.21479  0.07033  Biso   1.000  N
  N10      1.0000 0.28863  0.06707  0.38241  Biso   1.000  N
  N11      1.0000 0.31961  0.23959  0.05000  Biso   1.000  N
  N12      1.0000 0.35150  0.06492  0.37651  Biso   1.000  N
  N13      1.0000 0.37555  0.61927  0.23868  Biso   1.000  N
  N14      1.0000 0.40776  0.44896  0.55738  Biso   1.000  N
  N15      1.0000 0.43970  0.58681  0.21989  Biso   1.000  N
  N16      1.0000 0.46411  0.00795  0.34053  Biso   1.000  N
  N17      1.0000 0.49572  0.15001  0.99323  Biso   1.000  N
  N18      1.0000 0.52689  0.94526  0.30399  Biso   1.000  N
  N19      1.0000 0.55776  0.04481  0.97602  Biso   1.000  N
  N20      1.0000 0.58825  0.81718  0.30011  Biso   1.000  N
  N21      1.0000 0.61968  0.87493  0.99125  Biso   1.000  N
  N22      1.0000 0.64973  0.64283  0.32295  Biso   1.000  N
  N23      1.0000 0.68139  0.67725  0.02401  Biso   1.000  N
  N24      1.0000 0.71126  0.44535  0.35481  Biso   1.000  N
  N25      1.0000 0.74290  0.51504  0.04103  Biso   1.000  N
  N26      1.0000 0.77325  0.29651  0.36242  Biso   1.000  N
  N27      1.0000 0.80442  0.40510  0.03576  Biso   1.000  N
  N28      1.0000 0.83513  0.20017  0.35451  Biso   1.000  N
  N29      1.0000 0.86614  0.33364  0.02400  Biso   1.000  N
  N30      1.0000 0.89704  0.14390  0.34160  Biso   1.000  N
  N31      1.0000 0.92777  0.29753  0.00562  Biso   1.000  N
  N32      1.0000 0.95879  0.12393  0.31668  Biso   1.000  N
  N33      1.0000 0.99079  0.28584  0.96887  Biso   1.000  N
