data_image0
_cell_length_a       32.8195
_cell_length_b       2.19725
_cell_length_c       2.43791
_cell_angle_alpha    63.2459
_cell_angle_beta     90.9347
_cell_angle_gamma    92.2856

_symmetry_space_group_name_H-M    "P 1"
_symmetry_int_tables_number       1

loop_
  _symmetry_equiv_pos_as_xyz
  'x, y, z'

loop_
  _atom_site_label
  _atom_site_occupancy
  _atom_site_fract_x
  _atom_site_fract_y
  _atom_site_fract_z
  _atom_site_thermal_displace_type
  _atom_site_B_iso_or_equiv
  _atom_site_type_symbol
  N1       1.0000 0.01615  0.73131  0.00053  Biso   1.000  N
  N2       1.0000 0.04684  0.53389  0.33444  Biso   1.000  N
  N3       1.0000 0.07858  0.63310  0.02806  Biso   1.000  N
  N4       1.0000 0.10911  0.42502  0.36444  Biso   1.000  N
  N5       1.0000 0.14077  0.51902  0.05923  Biso   1.000  N
  N6       1.0000 0.17143  0.31505  0.39408  Biso   1.000  N
  N7       1.0000 0.20312  0.42793  0.08439  Biso   1.000  N
  N8       1.0000 0.23401  0.24275  0.41453  Biso   1.000  N
  N9       1.0000 0.26562  0.39136  0.09825  Biso   1.000  N
  N10      1.0000 0.29690  0.23871  0.42377  Biso   1.000  N
  N11      1.0000 0.32829  0.42668  0.10207  Biso   1.000  N
  N12      1.0000 0.35975  0.31156  0.42147  Biso   1.000  N
  N13      1.0000 0.39087  0.53048  0.09491  Biso   1.000  N
  N14      1.0000 0.42242  0.44428  0.40854  Biso   1.000  N
  N15      1.0000 0.45327  0.68051  0.07858  Biso   1.000  N
  N16      1.0000 0.48481  0.60896  0.38934  Biso   1.000  N
  N17      1.0000 0.51561  0.85007  0.05878  Biso   1.000  N
  N18      1.0000 0.54712  0.78102  0.37068  Biso   1.000  N
  N19      1.0000 0.57794  0.01956  0.04255  Biso   1.000  N
  N20      1.0000 0.60944  0.94685  0.35690  Biso   1.000  N
  N21      1.0000 0.64032  0.18295  0.02947  Biso   1.000  N
  N22      1.0000 0.67182  0.10822  0.34307  Biso   1.000  N
  N23      1.0000 0.70267  0.34467  0.01395  Biso   1.000  N
  N24      1.0000 0.73424  0.26824  0.32594  Biso   1.000  N
  N25      1.0000 0.76511  0.50325  0.99608  Biso   1.000  N
  N26      1.0000 0.79667  0.41902  0.30946  Biso   1.000  N
  N27      1.0000 0.82770  0.64437  0.98212  Biso   1.000  N
  N28      1.0000 0.85919  0.54067  0.30028  Biso   1.000  N
  N29      1.0000 0.89054  0.74352  0.97729  Biso   1.000  N
  N30      1.0000 0.92182  0.60791  0.30125  Biso   1.000  N
  N31      1.0000 0.95343  0.77519  0.98314  Biso   1.000  N
  N32      1.0000 0.98445  0.60390  0.31243  Biso   1.000  N
