data_image0
_cell_length_a       26.5375
_cell_length_b       2.14287
_cell_length_c       2.47284
_cell_angle_alpha    65.7188
_cell_angle_beta     90.9165
_cell_angle_gamma    90.0299

_symmetry_space_group_name_H-M    "P 1"
_symmetry_int_tables_number       1

loop_
  _symmetry_equiv_pos_as_xyz
  'x, y, z'

loop_
  _atom_site_label
  _atom_site_occupancy
  _atom_site_fract_x
  _atom_site_fract_y
  _atom_site_fract_z
  _atom_site_thermal_displace_type
  _atom_site_B_iso_or_equiv
  _atom_site_type_symbol
  N1       1.0000 0.01216  0.65496  0.19879  Biso   1.000  N
  N2       1.0000 0.05220  0.48161  0.54379  Biso   1.000  N
  N3       1.0000 0.09008  0.64353  0.22537  Biso   1.000  N
  N4       1.0000 0.12835  0.47503  0.55496  Biso   1.000  N
  N5       1.0000 0.16808  0.64338  0.22451  Biso   1.000  N
  N6       1.0000 0.19805  0.07725  0.36806  Biso   1.000  N
  N7       1.0000 0.23759  0.24296  0.03910  Biso   1.000  N
  N8       1.0000 0.27605  0.07137  0.36976  Biso   1.000  N
  N9       1.0000 0.31420  0.22769  0.05904  Biso   1.000  N
  N10      1.0000 0.35260  0.04485  0.40175  Biso   1.000  N
  N11      1.0000 0.39086  0.19749  0.09521  Biso   1.000  N
  N12      1.0000 0.42939  0.02418  0.43007  Biso   1.000  N
  N13      1.0000 0.46888  0.18401  0.11004  Biso   1.000  N
  N14      1.0000 0.49946  0.61572  0.25794  Biso   1.000  N
  N15      1.0000 0.53878  0.78081  0.92714  Biso   1.000  N
  N16      1.0000 0.57733  0.61775  0.25470  Biso   1.000  N
  N17      1.0000 0.61678  0.78328  0.92050  Biso   1.000  N
  N18      1.0000 0.64663  0.21927  0.05571  Biso   1.000  N
  N19      1.0000 0.68644  0.37640  0.73056  Biso   1.000  N
  N20      1.0000 0.72635  0.21470  0.06838  Biso   1.000  N
  N21      1.0000 0.75615  0.77448  0.94265  Biso   1.000  N
  N22      1.0000 0.79575  0.60401  0.28998  Biso   1.000  N
  N23      1.0000 0.83400  0.76053  0.97334  Biso   1.000  N
  N24      1.0000 0.87362  0.59163  0.31894  Biso   1.000  N
  N25      1.0000 0.90351  0.15205  0.19321  Biso   1.000  N
  N26      1.0000 0.94341  0.99664  0.52553  Biso   1.000  N
  N27      1.0000 0.98330  0.15692  0.19597  Biso   1.000  N
