data_image0
_cell_length_a       37.6705
_cell_length_b       2.16648
_cell_length_c       2.46451
_cell_angle_alpha    65.4258
_cell_angle_beta     84.1853
_cell_angle_gamma    88.4801

_symmetry_space_group_name_H-M    "P 1"
_symmetry_int_tables_number       1

loop_
  _symmetry_equiv_pos_as_xyz
  'x, y, z'

loop_
  _atom_site_label
  _atom_site_occupancy
  _atom_site_fract_x
  _atom_site_fract_y
  _atom_site_fract_z
  _atom_site_thermal_displace_type
  _atom_site_B_iso_or_equiv
  _atom_site_type_symbol
  N1       1.0000 0.01056  0.68691  0.12045  Biso   1.000  N
  N2       1.0000 0.03805  0.51829  0.42501  Biso   1.000  N
  N3       1.0000 0.06568  0.68659  0.06997  Biso   1.000  N
  N4       1.0000 0.09218  0.52074  0.35963  Biso   1.000  N
  N5       1.0000 0.11977  0.69815  0.99200  Biso   1.000  N
  N6       1.0000 0.14639  0.53362  0.27716  Biso   1.000  N
  N7       1.0000 0.17396  0.70407  0.91675  Biso   1.000  N
  N8       1.0000 0.20152  0.54007  0.21330  Biso   1.000  N
  N9       1.0000 0.22307  0.10719  0.04957  Biso   1.000  N
  N10      1.0000 0.25070  0.94732  0.34495  Biso   1.000  N
  N11      1.0000 0.27832  0.11628  0.98282  Biso   1.000  N
  N12      1.0000 0.30588  0.95995  0.27577  Biso   1.000  N
  N13      1.0000 0.32771  0.53622  0.10480  Biso   1.000  N
  N14      1.0000 0.35539  0.38452  0.39223  Biso   1.000  N
  N15      1.0000 0.38286  0.55570  0.02443  Biso   1.000  N
  N16      1.0000 0.41086  0.40769  0.30689  Biso   1.000  N
  N17      1.0000 0.43231  0.98123  0.13779  Biso   1.000  N
  N18      1.0000 0.46021  0.82787  0.42182  Biso   1.000  N
  N19      1.0000 0.48747  0.00380  0.04681  Biso   1.000  N
  N20      1.0000 0.51440  0.84583  0.32010  Biso   1.000  N
  N21      1.0000 0.54155  0.02365  0.94387  Biso   1.000  N
  N22      1.0000 0.56953  0.86340  0.23363  Biso   1.000  N
  N23      1.0000 0.59058  0.43718  0.05213  Biso   1.000  N
  N24      1.0000 0.61903  0.26914  0.36268  Biso   1.000  N
  N25      1.0000 0.64008  0.84155  0.18288  Biso   1.000  N
  N26      1.0000 0.66789  0.67772  0.47858  Biso   1.000  N
  N27      1.0000 0.69518  0.85575  0.10936  Biso   1.000  N
  N28      1.0000 0.72190  0.69735  0.39215  Biso   1.000  N
  N29      1.0000 0.74933  0.87277  0.02676  Biso   1.000  N
  N30      1.0000 0.77690  0.71034  0.32416  Biso   1.000  N
  N31      1.0000 0.79831  0.27535  0.16502  Biso   1.000  N
  N32      1.0000 0.82598  0.11385  0.46117  Biso   1.000  N
  N33      1.0000 0.85351  0.28552  0.10135  Biso   1.000  N
  N34      1.0000 0.88002  0.12147  0.39018  Biso   1.000  N
  N35      1.0000 0.90774  0.29528  0.02808  Biso   1.000  N
  N36      1.0000 0.93416  0.12796  0.32136  Biso   1.000  N
  N37      1.0000 0.96179  0.29508  0.96854  Biso   1.000  N
  N38      1.0000 0.98920  0.12462  0.27584  Biso   1.000  N
