data_image0
_cell_length_a       35.4285
_cell_length_b       2.20076
_cell_length_c       2.43714
_cell_angle_alpha    63.1509
_cell_angle_beta     85.7229
_cell_angle_gamma    80.5142

_symmetry_space_group_name_H-M    "P 1"
_symmetry_int_tables_number       1

loop_
  _symmetry_equiv_pos_as_xyz
  'x, y, z'

loop_
  _atom_site_label
  _atom_site_occupancy
  _atom_site_fract_x
  _atom_site_fract_y
  _atom_site_fract_z
  _atom_site_thermal_displace_type
  _atom_site_B_iso_or_equiv
  _atom_site_type_symbol
  N1       1.0000 0.01489  0.94217  0.04305  Biso   1.000  N
  N2       1.0000 0.04435  0.70789  0.36502  Biso   1.000  N
  N3       1.0000 0.07376  0.80229  0.04198  Biso   1.000  N
  N4       1.0000 0.10326  0.57955  0.36233  Biso   1.000  N
  N5       1.0000 0.13260  0.68144  0.03792  Biso   1.000  N
  N6       1.0000 0.16213  0.45875  0.35721  Biso   1.000  N
  N7       1.0000 0.19147  0.55161  0.03212  Biso   1.000  N
  N8       1.0000 0.22100  0.31084  0.35176  Biso   1.000  N
  N9       1.0000 0.25037  0.38091  0.02772  Biso   1.000  N
  N10      1.0000 0.27979  0.11688  0.34900  Biso   1.000  N
  N11      1.0000 0.30918  0.16534  0.02761  Biso   1.000  N
  N12      1.0000 0.33845  0.88614  0.35145  Biso   1.000  N
  N13      1.0000 0.36788  0.92115  0.03299  Biso   1.000  N
  N14      1.0000 0.39703  0.63501  0.35880  Biso   1.000  N
  N15      1.0000 0.42648  0.66549  0.04144  Biso   1.000  N
  N16      1.0000 0.45564  0.37963  0.36712  Biso   1.000  N
  N17      1.0000 0.48507  0.41521  0.04852  Biso   1.000  N
  N18      1.0000 0.51433  0.13644  0.37232  Biso   1.000  N
  N19      1.0000 0.54374  0.18517  0.05106  Biso   1.000  N
  N20      1.0000 0.57315  0.92126  0.37263  Biso   1.000  N
  N21      1.0000 0.60253  0.99058  0.04909  Biso   1.000  N
  N22      1.0000 0.63204  0.74842  0.36929  Biso   1.000  N
  N23      1.0000 0.66140  0.83906  0.04462  Biso   1.000  N
  N24      1.0000 0.69093  0.61384  0.36398  Biso   1.000  N
  N25      1.0000 0.72027  0.71397  0.03908  Biso   1.000  N
  N26      1.0000 0.74979  0.49076  0.35861  Biso   1.000  N
  N27      1.0000 0.77918  0.58660  0.03464  Biso   1.000  N
  N28      1.0000 0.80866  0.35548  0.35570  Biso   1.000  N
  N29      1.0000 0.83813  0.44149  0.03371  Biso   1.000  N
  N30      1.0000 0.86755  0.20110  0.35671  Biso   1.000  N
  N31      1.0000 0.89708  0.27798  0.03658  Biso   1.000  N
  N32      1.0000 0.92646  0.03140  0.36072  Biso   1.000  N
  N33      1.0000 0.95600  0.10541  0.04087  Biso   1.000  N
  N34      1.0000 0.98540  0.86075  0.36436  Biso   1.000  N
