data_image0
_cell_length_a       36.3506
_cell_length_b       2.16847
_cell_length_c       2.45971
_cell_angle_alpha    63.7985
_cell_angle_beta     88.1034
_cell_angle_gamma    91.942

_symmetry_space_group_name_H-M    "P 1"
_symmetry_int_tables_number       1

loop_
  _symmetry_equiv_pos_as_xyz
  'x, y, z'

loop_
  _atom_site_label
  _atom_site_occupancy
  _atom_site_fract_x
  _atom_site_fract_y
  _atom_site_fract_z
  _atom_site_thermal_displace_type
  _atom_site_B_iso_or_equiv
  _atom_site_type_symbol
  N1       1.0000 0.00826  0.65034  0.23950  Biso   1.000  N
  N2       1.0000 0.03733  0.50202  0.55456  Biso   1.000  N
  N3       1.0000 0.06576  0.67980  0.20647  Biso   1.000  N
  N4       1.0000 0.09409  0.52467  0.49409  Biso   1.000  N
  N5       1.0000 0.12244  0.69210  0.14510  Biso   1.000  N
  N6       1.0000 0.15070  0.53831  0.43630  Biso   1.000  N
  N7       1.0000 0.17936  0.71180  0.09597  Biso   1.000  N
  N8       1.0000 0.20821  0.56521  0.41103  Biso   1.000  N
  N9       1.0000 0.23033  0.14663  0.26947  Biso   1.000  N
  N10      1.0000 0.25924  0.00211  0.58442  Biso   1.000  N
  N11      1.0000 0.28784  0.19115  0.24167  Biso   1.000  N
  N12      1.0000 0.31604  0.06834  0.53306  Biso   1.000  N
  N13      1.0000 0.34445  0.27249  0.18431  Biso   1.000  N
  N14      1.0000 0.37286  0.16804  0.47475  Biso   1.000  N
  N15      1.0000 0.40120  0.38617  0.13122  Biso   1.000  N
  N16      1.0000 0.42945  0.29708  0.42821  Biso   1.000  N
  N17      1.0000 0.45769  0.53150  0.08974  Biso   1.000  N
  N18      1.0000 0.48597  0.45171  0.38558  Biso   1.000  N
  N19      1.0000 0.51422  0.69685  0.04254  Biso   1.000  N
  N20      1.0000 0.54236  0.62549  0.33268  Biso   1.000  N
  N21      1.0000 0.57055  0.87256  0.98462  Biso   1.000  N
  N22      1.0000 0.59892  0.79761  0.27308  Biso   1.000  N
  N23      1.0000 0.62708  0.03271  0.92811  Biso   1.000  N
  N24      1.0000 0.65547  0.94400  0.22071  Biso   1.000  N
  N25      1.0000 0.68374  0.15718  0.87716  Biso   1.000  N
  N26      1.0000 0.71229  0.04596  0.16950  Biso   1.000  N
  N27      1.0000 0.74053  0.24155  0.82140  Biso   1.000  N
  N28      1.0000 0.76898  0.11409  0.10787  Biso   1.000  N
  N29      1.0000 0.79739  0.30089  0.75933  Biso   1.000  N
  N30      1.0000 0.82643  0.15870  0.06735  Biso   1.000  N
  N31      1.0000 0.84869  0.74286  0.92147  Biso   1.000  N
  N32      1.0000 0.87754  0.59750  0.23686  Biso   1.000  N
  N33      1.0000 0.90611  0.77906  0.89126  Biso   1.000  N
  N34      1.0000 0.93509  0.63099  0.21152  Biso   1.000  N
  N35      1.0000 0.95703  0.22166  0.05014  Biso   1.000  N
  N36      1.0000 0.98638  0.06090  0.39895  Biso   1.000  N
