data_image0
_cell_length_a       28.9989
_cell_length_b       2.16863
_cell_length_c       2.45787
_cell_angle_alpha    65.6871
_cell_angle_beta     91.0696
_cell_angle_gamma    86.8874

_symmetry_space_group_name_H-M    "P 1"
_symmetry_int_tables_number       1

loop_
  _symmetry_equiv_pos_as_xyz
  'x, y, z'

loop_
  _atom_site_label
  _atom_site_occupancy
  _atom_site_fract_x
  _atom_site_fract_y
  _atom_site_fract_z
  _atom_site_thermal_displace_type
  _atom_site_B_iso_or_equiv
  _atom_site_type_symbol
  N1       1.0000 0.01173  0.87505  0.98398  Biso   1.000  N
  N2       1.0000 0.04850  0.68383  0.33898  Biso   1.000  N
  N3       1.0000 0.08316  0.84463  0.02987  Biso   1.000  N
  N4       1.0000 0.11835  0.69200  0.36872  Biso   1.000  N
  N5       1.0000 0.15313  0.86418  0.05523  Biso   1.000  N
  N6       1.0000 0.18856  0.70329  0.38788  Biso   1.000  N
  N7       1.0000 0.22319  0.86390  0.07176  Biso   1.000  N
  N8       1.0000 0.25870  0.67736  0.40655  Biso   1.000  N
  N9       1.0000 0.29351  0.81408  0.09648  Biso   1.000  N
  N10      1.0000 0.32886  0.60125  0.43847  Biso   1.000  N
  N11      1.0000 0.36371  0.71689  0.13413  Biso   1.000  N
  N12      1.0000 0.39909  0.48895  0.47893  Biso   1.000  N
  N13      1.0000 0.43382  0.59683  0.17166  Biso   1.000  N
  N14      1.0000 0.46914  0.37727  0.51217  Biso   1.000  N
  N15      1.0000 0.50526  0.50008  0.19596  Biso   1.000  N
  N16      1.0000 0.53286  0.91277  0.33894  Biso   1.000  N
  N17      1.0000 0.56872  0.04262  0.01891  Biso   1.000  N
  N18      1.0000 0.60422  0.83511  0.35815  Biso   1.000  N
  N19      1.0000 0.63875  0.96214  0.04682  Biso   1.000  N
  N20      1.0000 0.67429  0.75784  0.38600  Biso   1.000  N
  N21      1.0000 0.71008  0.89151  0.06551  Biso   1.000  N
  N22      1.0000 0.73779  0.30658  0.20857  Biso   1.000  N
  N23      1.0000 0.77383  0.44222  0.89240  Biso   1.000  N
  N24      1.0000 0.80917  0.25863  0.23386  Biso   1.000  N
  N25      1.0000 0.84384  0.41625  0.92876  Biso   1.000  N
  N26      1.0000 0.87937  0.23977  0.27370  Biso   1.000  N
  N27      1.0000 0.91387  0.41155  0.96517  Biso   1.000  N
  N28      1.0000 0.94916  0.24357  0.30294  Biso   1.000  N
  N29      1.0000 0.98533  0.39235  0.98450  Biso   1.000  N
