data_image0
_cell_length_a       35.409
_cell_length_b       2.20266
_cell_length_c       2.43722
_cell_angle_alpha    63.112
_cell_angle_beta     85.6978
_cell_angle_gamma    80.6138

_symmetry_space_group_name_H-M    "P 1"
_symmetry_int_tables_number       1

loop_
  _symmetry_equiv_pos_as_xyz
  'x, y, z'

loop_
  _atom_site_label
  _atom_site_occupancy
  _atom_site_fract_x
  _atom_site_fract_y
  _atom_site_fract_z
  _atom_site_thermal_displace_type
  _atom_site_B_iso_or_equiv
  _atom_site_type_symbol
  N1       1.0000 0.01471  0.94286  0.05267  Biso   1.000  N
  N2       1.0000 0.04423  0.71942  0.37215  Biso   1.000  N
  N3       1.0000 0.07355  0.82854  0.04622  Biso   1.000  N
  N4       1.0000 0.10306  0.62413  0.36441  Biso   1.000  N
  N5       1.0000 0.13231  0.74736  0.03800  Biso   1.000  N
  N6       1.0000 0.16179  0.55031  0.35592  Biso   1.000  N
  N7       1.0000 0.19106  0.67084  0.03016  Biso   1.000  N
  N8       1.0000 0.22055  0.46042  0.34972  Biso   1.000  N
  N9       1.0000 0.24994  0.55993  0.02534  Biso   1.000  N
  N10      1.0000 0.27940  0.32306  0.34683  Biso   1.000  N
  N11      1.0000 0.30887  0.39564  0.02422  Biso   1.000  N
  N12      1.0000 0.33826  0.13677  0.34679  Biso   1.000  N
  N13      1.0000 0.36773  0.19337  0.02558  Biso   1.000  N
  N14      1.0000 0.39708  0.92768  0.34871  Biso   1.000  N
  N15      1.0000 0.42657  0.98409  0.02767  Biso   1.000  N
  N16      1.0000 0.45592  0.72259  0.35090  Biso   1.000  N
  N17      1.0000 0.48542  0.78491  0.02959  Biso   1.000  N
  N18      1.0000 0.51478  0.52738  0.35272  Biso   1.000  N
  N19      1.0000 0.54428  0.59036  0.03130  Biso   1.000  N
  N20      1.0000 0.57363  0.32921  0.35449  Biso   1.000  N
  N21      1.0000 0.60312  0.38413  0.03359  Biso   1.000  N
  N22      1.0000 0.63241  0.11338  0.35736  Biso   1.000  N
  N23      1.0000 0.66189  0.15712  0.03768  Biso   1.000  N
  N24      1.0000 0.69112  0.87851  0.36219  Biso   1.000  N
  N25      1.0000 0.72061  0.91696  0.04334  Biso   1.000  N
  N26      1.0000 0.74982  0.63823  0.36829  Biso   1.000  N
  N27      1.0000 0.77933  0.68119  0.04934  Biso   1.000  N
  N28      1.0000 0.80859  0.41016  0.37407  Biso   1.000  N
  N29      1.0000 0.83811  0.46425  0.05409  Biso   1.000  N
  N30      1.0000 0.86745  0.20382  0.37781  Biso   1.000  N
  N31      1.0000 0.89695  0.26914  0.05651  Biso   1.000  N
  N32      1.0000 0.92636  0.01790  0.37896  Biso   1.000  N
  N33      1.0000 0.95583  0.09342  0.05620  Biso   1.000  N
  N34      1.0000 0.98531  0.85291  0.37718  Biso   1.000  N
