data_image0
_cell_length_a       35.2777
_cell_length_b       2.17144
_cell_length_c       2.45453
_cell_angle_alpha    63.6521
_cell_angle_beta     90.6313
_cell_angle_gamma    89.2184

_symmetry_space_group_name_H-M    "P 1"
_symmetry_int_tables_number       1

loop_
  _symmetry_equiv_pos_as_xyz
  'x, y, z'

loop_
  _atom_site_label
  _atom_site_occupancy
  _atom_site_fract_x
  _atom_site_fract_y
  _atom_site_fract_z
  _atom_site_thermal_displace_type
  _atom_site_B_iso_or_equiv
  _atom_site_type_symbol
  N1       1.0000 0.00929  0.75006  0.00462  Biso   1.000  N
  N2       1.0000 0.03947  0.57665  0.34854  Biso   1.000  N
  N3       1.0000 0.06844  0.74010  0.03393  Biso   1.000  N
  N4       1.0000 0.09776  0.60991  0.35376  Biso   1.000  N
  N5       1.0000 0.12651  0.79283  0.03258  Biso   1.000  N
  N6       1.0000 0.15614  0.68165  0.34361  Biso   1.000  N
  N7       1.0000 0.18458  0.87428  0.01708  Biso   1.000  N
  N8       1.0000 0.21436  0.76807  0.32724  Biso   1.000  N
  N9       1.0000 0.24268  0.95842  0.00491  Biso   1.000  N
  N10      1.0000 0.27255  0.83894  0.31902  Biso   1.000  N
  N11      1.0000 0.30100  0.01786  0.99545  Biso   1.000  N
  N12      1.0000 0.33082  0.88317  0.30505  Biso   1.000  N
  N13      1.0000 0.35944  0.04929  0.97549  Biso   1.000  N
  N14      1.0000 0.38888  0.89859  0.28700  Biso   1.000  N
  N15      1.0000 0.41800  0.05098  0.96825  Biso   1.000  N
  N16      1.0000 0.44784  0.87374  0.31046  Biso   1.000  N
  N17      1.0000 0.47063  0.43109  0.18221  Biso   1.000  N
  N18      1.0000 0.50053  0.24720  0.53111  Biso   1.000  N
  N19      1.0000 0.52953  0.39168  0.21836  Biso   1.000  N
  N20      1.0000 0.55877  0.21771  0.54320  Biso   1.000  N
  N21      1.0000 0.58844  0.37673  0.20770  Biso   1.000  N
  N22      1.0000 0.61139  0.80232  0.34604  Biso   1.000  N
  N23      1.0000 0.64104  0.95594  0.01948  Biso   1.000  N
  N24      1.0000 0.67037  0.77428  0.35104  Biso   1.000  N
  N25      1.0000 0.69974  0.89471  0.05448  Biso   1.000  N
  N26      1.0000 0.72849  0.70030  0.39886  Biso   1.000  N
  N27      1.0000 0.75800  0.81833  0.10351  Biso   1.000  N
  N28      1.0000 0.78703  0.63540  0.43792  Biso   1.000  N
  N29      1.0000 0.81711  0.78558  0.11606  Biso   1.000  N
  N30      1.0000 0.83978  0.21289  0.25057  Biso   1.000  N
  N31      1.0000 0.86976  0.36184  0.93213  Biso   1.000  N
  N32      1.0000 0.89893  0.17776  0.26705  Biso   1.000  N
  N33      1.0000 0.92811  0.29520  0.97577  Biso   1.000  N
  N34      1.0000 0.95715  0.11150  0.31283  Biso   1.000  N
  N35      1.0000 0.98743  0.25748  0.99967  Biso   1.000  N
