data_image0
_cell_length_a       27.6292
_cell_length_b       2.15507
_cell_length_c       2.46233
_cell_angle_alpha    65.6375
_cell_angle_beta     85.7372
_cell_angle_gamma    89.7658

_symmetry_space_group_name_H-M    "P 1"
_symmetry_int_tables_number       1

loop_
  _symmetry_equiv_pos_as_xyz
  'x, y, z'

loop_
  _atom_site_label
  _atom_site_occupancy
  _atom_site_fract_x
  _atom_site_fract_y
  _atom_site_fract_z
  _atom_site_thermal_displace_type
  _atom_site_B_iso_or_equiv
  _atom_site_type_symbol
  N1       1.0000 0.01511  0.62516  0.26441  Biso   1.000  N
  N2       1.0000 0.05330  0.48054  0.56182  Biso   1.000  N
  N3       1.0000 0.09164  0.65453  0.19974  Biso   1.000  N
  N4       1.0000 0.12055  0.10285  0.30770  Biso   1.000  N
  N5       1.0000 0.15856  0.28926  0.93183  Biso   1.000  N
  N6       1.0000 0.19534  0.14032  0.22192  Biso   1.000  N
  N7       1.0000 0.23235  0.31915  0.86935  Biso   1.000  N
  N8       1.0000 0.27020  0.16145  0.17849  Biso   1.000  N
  N9       1.0000 0.29932  0.73125  0.02503  Biso   1.000  N
  N10      1.0000 0.33665  0.57289  0.33930  Biso   1.000  N
  N11      1.0000 0.37454  0.74734  0.99501  Biso   1.000  N
  N12      1.0000 0.41168  0.59141  0.30931  Biso   1.000  N
  N13      1.0000 0.44119  0.16499  0.15174  Biso   1.000  N
  N14      1.0000 0.47903  0.01662  0.44958  Biso   1.000  N
  N15      1.0000 0.51620  0.19875  0.09302  Biso   1.000  N
  N16      1.0000 0.55308  0.05655  0.37551  Biso   1.000  N
  N17      1.0000 0.58980  0.25056  0.00420  Biso   1.000  N
  N18      1.0000 0.62670  0.10621  0.28590  Biso   1.000  N
  N19      1.0000 0.66384  0.28528  0.92843  Biso   1.000  N
  N20      1.0000 0.70175  0.13587  0.22571  Biso   1.000  N
  N21      1.0000 0.73097  0.71142  0.06528  Biso   1.000  N
  N22      1.0000 0.76879  0.56387  0.36425  Biso   1.000  N
  N23      1.0000 0.80633  0.74309  0.01093  Biso   1.000  N
  N24      1.0000 0.84377  0.59515  0.31321  Biso   1.000  N
  N25      1.0000 0.87351  0.17405  0.15322  Biso   1.000  N
  N26      1.0000 0.91094  0.02494  0.45633  Biso   1.000  N
  N27      1.0000 0.94862  0.20248  0.10635  Biso   1.000  N
  N28      1.0000 0.98628  0.05402  0.41242  Biso   1.000  N
