data_image0
_cell_length_a       32.3617
_cell_length_b       2.18397
_cell_length_c       2.45034
_cell_angle_alpha    63.5624
_cell_angle_beta     89.6933
_cell_angle_gamma    93.5781

_symmetry_space_group_name_H-M    "P 1"
_symmetry_int_tables_number       1

loop_
  _symmetry_equiv_pos_as_xyz
  'x, y, z'

loop_
  _atom_site_label
  _atom_site_occupancy
  _atom_site_fract_x
  _atom_site_fract_y
  _atom_site_fract_z
  _atom_site_thermal_displace_type
  _atom_site_B_iso_or_equiv
  _atom_site_type_symbol
  N1       1.0000 0.00894  0.69386  0.29412  Biso   1.000  N
  N2       1.0000 0.04151  0.56461  0.61499  Biso   1.000  N
  N3       1.0000 0.07328  0.78560  0.26871  Biso   1.000  N
  N4       1.0000 0.10529  0.71375  0.55679  Biso   1.000  N
  N5       1.0000 0.13655  0.95770  0.20681  Biso   1.000  N
  N6       1.0000 0.16885  0.90010  0.49689  Biso   1.000  N
  N7       1.0000 0.20009  0.14866  0.15583  Biso   1.000  N
  N8       1.0000 0.23222  0.09531  0.45289  Biso   1.000  N
  N9       1.0000 0.26339  0.35042  0.11209  Biso   1.000  N
  N10      1.0000 0.29555  0.30603  0.40200  Biso   1.000  N
  N11      1.0000 0.32677  0.56309  0.05413  Biso   1.000  N
  N12      1.0000 0.35878  0.51567  0.34234  Biso   1.000  N
  N13      1.0000 0.39013  0.76639  0.99809  Biso   1.000  N
  N14      1.0000 0.42225  0.69846  0.29538  Biso   1.000  N
  N15      1.0000 0.45376  0.93501  0.96058  Biso   1.000  N
  N16      1.0000 0.48574  0.85052  0.26456  Biso   1.000  N
  N17      1.0000 0.51744  0.07268  0.92900  Biso   1.000  N
  N18      1.0000 0.54949  0.97144  0.22739  Biso   1.000  N
  N19      1.0000 0.58130  0.18123  0.88526  Biso   1.000  N
  N20      1.0000 0.61306  0.06366  0.18294  Biso   1.000  N
  N21      1.0000 0.64518  0.26139  0.84710  Biso   1.000  N
  N22      1.0000 0.67763  0.12962  0.16772  Biso   1.000  N
  N23      1.0000 0.70252  0.72102  0.03235  Biso   1.000  N
  N24      1.0000 0.73495  0.58143  0.35530  Biso   1.000  N
  N25      1.0000 0.76701  0.75739  0.02130  Biso   1.000  N
  N26      1.0000 0.79883  0.59391  0.31887  Biso   1.000  N
  N27      1.0000 0.83046  0.76313  0.97426  Biso   1.000  N
  N28      1.0000 0.86234  0.59951  0.26745  Biso   1.000  N
  N29      1.0000 0.89422  0.78052  0.92502  Biso   1.000  N
  N30      1.0000 0.92677  0.64168  0.24710  Biso   1.000  N
  N31      1.0000 0.95139  0.24202  0.09413  Biso   1.000  N
  N32      1.0000 0.98429  0.09419  0.44860  Biso   1.000  N
